* NGSPICE file created from heichips25_template.ext - technology: ihp-sg13g2

* Black-box entry subcircuit for sg13g2_a21o_2 abstract view
.subckt sg13g2_a21o_2 A2 A1 B1 X VDD VSS
.ends

* Black-box entry subcircuit for sg13g2_decap_8 abstract view
.subckt sg13g2_decap_8 VDD VSS
.ends

* Black-box entry subcircuit for sg13g2_a21oi_1 abstract view
.subckt sg13g2_a21oi_1 VSS VDD A1 A2 Y B1
.ends

* Black-box entry subcircuit for sg13g2_and2_1 abstract view
.subckt sg13g2_and2_1 A B X VDD VSS
.ends

* Black-box entry subcircuit for sg13g2_inv_2 abstract view
.subckt sg13g2_inv_2 Y A VDD VSS
.ends

* Black-box entry subcircuit for sg13g2_fill_2 abstract view
.subckt sg13g2_fill_2 VDD VSS
.ends

* Black-box entry subcircuit for sg13g2_o21ai_1 abstract view
.subckt sg13g2_o21ai_1 B1 VDD Y VSS A1 A2
.ends

* Black-box entry subcircuit for sg13g2_fill_1 abstract view
.subckt sg13g2_fill_1 VDD VSS
.ends

* Black-box entry subcircuit for sg13g2_nand4_1 abstract view
.subckt sg13g2_nand4_1 B C A Y VDD VSS D
.ends

* Black-box entry subcircuit for sg13g2_nand2_1 abstract view
.subckt sg13g2_nand2_1 Y A B VDD VSS
.ends

* Black-box entry subcircuit for sg13g2_nor3_1 abstract view
.subckt sg13g2_nor3_1 A B C Y VDD VSS
.ends

* Black-box entry subcircuit for sg13g2_mux2_1 abstract view
.subckt sg13g2_mux2_1 A0 A1 S X VDD VSS
.ends

* Black-box entry subcircuit for sg13g2_nor4_1 abstract view
.subckt sg13g2_nor4_1 A B C D Y VDD VSS
.ends

* Black-box entry subcircuit for sg13g2_dfrbpq_1 abstract view
.subckt sg13g2_dfrbpq_1 RESET_B VSS VDD D Q CLK
.ends

* Black-box entry subcircuit for sg13g2_nand3_1 abstract view
.subckt sg13g2_nand3_1 B C A Y VDD VSS
.ends

* Black-box entry subcircuit for sg13g2_buf_8 abstract view
.subckt sg13g2_buf_8 A X VDD VSS
.ends

* Black-box entry subcircuit for sg13g2_buf_1 abstract view
.subckt sg13g2_buf_1 A X VDD VSS
.ends

* Black-box entry subcircuit for sg13g2_buf_2 abstract view
.subckt sg13g2_buf_2 A X VDD VSS
.ends

* Black-box entry subcircuit for sg13g2_a22oi_1 abstract view
.subckt sg13g2_a22oi_1 Y B1 B2 A2 A1 VDD VSS
.ends

* Black-box entry subcircuit for sg13g2_nor2_1 abstract view
.subckt sg13g2_nor2_1 A B Y VDD VSS
.ends

* Black-box entry subcircuit for sg13g2_dfrbpq_2 abstract view
.subckt sg13g2_dfrbpq_2 RESET_B VSS VDD D Q CLK
.ends

* Black-box entry subcircuit for sg13g2_decap_4 abstract view
.subckt sg13g2_decap_4 VDD VSS
.ends

* Black-box entry subcircuit for sg13g2_a221oi_1 abstract view
.subckt sg13g2_a221oi_1 VDD VSS B2 C1 B1 A1 Y A2
.ends

* Black-box entry subcircuit for sg13g2_nor2_2 abstract view
.subckt sg13g2_nor2_2 A B Y VDD VSS
.ends

* Black-box entry subcircuit for sg13g2_a21o_1 abstract view
.subckt sg13g2_a21o_1 A2 A1 B1 X VDD VSS
.ends

* Black-box entry subcircuit for sg13g2_inv_1 abstract view
.subckt sg13g2_inv_1 VDD Y A VSS
.ends

* Black-box entry subcircuit for sg13g2_inv_4 abstract view
.subckt sg13g2_inv_4 A Y VDD VSS
.ends

* Black-box entry subcircuit for sg13g2_dlygate4sd3_1 abstract view
.subckt sg13g2_dlygate4sd3_1 A VDD VSS X
.ends

* Black-box entry subcircuit for sg13g2_nand2b_1 abstract view
.subckt sg13g2_nand2b_1 Y B A_N VDD VSS
.ends

* Black-box entry subcircuit for sg13g2_or3_1 abstract view
.subckt sg13g2_or3_1 A B C X VDD VSS
.ends

* Black-box entry subcircuit for sg13g2_nand3b_1 abstract view
.subckt sg13g2_nand3b_1 B C Y VDD VSS A_N
.ends

* Black-box entry subcircuit for sg13g2_nand2b_2 abstract view
.subckt sg13g2_nand2b_2 Y B VDD VSS A_N
.ends

* Black-box entry subcircuit for sg13g2_nor2b_1 abstract view
.subckt sg13g2_nor2b_1 A B_N Y VDD VSS
.ends

* Black-box entry subcircuit for sg13g2_or2_1 abstract view
.subckt sg13g2_or2_1 VSS VDD X B A
.ends

* Black-box entry subcircuit for sg13g2_xnor2_1 abstract view
.subckt sg13g2_xnor2_1 Y A B VDD VSS
.ends

* Black-box entry subcircuit for sg13g2_tielo abstract view
.subckt sg13g2_tielo VDD VSS L_LO
.ends

* Black-box entry subcircuit for sg13g2_nor2b_2 abstract view
.subckt sg13g2_nor2b_2 A B_N Y VDD VSS
.ends

* Black-box entry subcircuit for sg13g2_xor2_1 abstract view
.subckt sg13g2_xor2_1 B A X VDD VSS
.ends

* Black-box entry subcircuit for sg13g2_and3_1 abstract view
.subckt sg13g2_and3_1 X A B C VDD VSS
.ends

* Black-box entry subcircuit for sg13g2_nor3_2 abstract view
.subckt sg13g2_nor3_2 A B C Y VDD VSS
.ends

* Black-box entry subcircuit for sg13g2_nand2_2 abstract view
.subckt sg13g2_nand2_2 Y A B VDD VSS
.ends

* Black-box entry subcircuit for sg13g2_lgcp_1 abstract view
.subckt sg13g2_lgcp_1 GATE CLK GCLK VDD VSS
.ends

* Black-box entry subcircuit for sg13g2_or4_1 abstract view
.subckt sg13g2_or4_1 A B C D X VDD VSS
.ends

* Black-box entry subcircuit for sg13g2_mux4_1 abstract view
.subckt sg13g2_mux4_1 S0 A0 A1 A2 A3 S1 X VDD VSS
.ends

* Black-box entry subcircuit for sg13g2_and3_2 abstract view
.subckt sg13g2_and3_2 X A B C VDD VSS
.ends

* Black-box entry subcircuit for sg13g2_and4_1 abstract view
.subckt sg13g2_and4_1 A B C D X VDD VSS
.ends

* Black-box entry subcircuit for sg13g2_a21oi_2 abstract view
.subckt sg13g2_a21oi_2 VSS VDD B1 Y A2 A1
.ends

* Black-box entry subcircuit for sg13g2_nor4_2 abstract view
.subckt sg13g2_nor4_2 A B C Y VSS VDD D
.ends

.subckt heichips25_template VGND VPWR clk ena rst_n ui_in[0] ui_in[1] ui_in[2] ui_in[3]
+ ui_in[4] ui_in[5] ui_in[6] ui_in[7] uio_in[0] uio_in[1] uio_in[2] uio_in[3] uio_in[4]
+ uio_in[5] uio_in[6] uio_in[7] uio_oe[0] uio_oe[1] uio_oe[2] uio_oe[3] uio_oe[4]
+ uio_oe[5] uio_oe[6] uio_oe[7] uio_out[0] uio_out[1] uio_out[2] uio_out[3] uio_out[4]
+ uio_out[5] uio_out[6] uio_out[7] uo_out[0] uo_out[1] uo_out[2] uo_out[3] uo_out[4]
+ uo_out[5] uo_out[6] uo_out[7]
X_3155_ _0690_ _1569_ _0275_ _0691_ VPWR VGND sg13g2_a21o_2
XFILLER_28_918 VPWR VGND sg13g2_decap_8
X_3086_ VGND VPWR _0611_ _0621_ _0622_ _0275_ sg13g2_a21oi_1
X_2106_ net719 net718 _1527_ VPWR VGND sg13g2_and2_1
XFILLER_36_962 VPWR VGND sg13g2_decap_8
X_2037_ _1460_ sap_3_inst.reg_file.array_serializer_inst.data\[0\]\[0\] VPWR VGND
+ sg13g2_inv_2
XFILLER_23_612 VPWR VGND sg13g2_decap_8
XFILLER_22_122 VPWR VGND sg13g2_fill_2
X_3988_ _1406_ VPWR _0184_ VGND net548 _1405_ sg13g2_o21ai_1
XFILLER_23_689 VPWR VGND sg13g2_decap_8
X_2939_ VGND VPWR _0472_ _0501_ _0502_ _0500_ sg13g2_a21oi_1
XFILLER_19_929 VPWR VGND sg13g2_decap_8
XFILLER_46_759 VPWR VGND sg13g2_decap_8
XFILLER_45_214 VPWR VGND sg13g2_fill_1
XFILLER_26_450 VPWR VGND sg13g2_decap_8
XFILLER_27_984 VPWR VGND sg13g2_decap_8
XFILLER_42_965 VPWR VGND sg13g2_decap_8
XFILLER_14_656 VPWR VGND sg13g2_decap_8
XFILLER_13_155 VPWR VGND sg13g2_fill_2
XFILLER_41_486 VPWR VGND sg13g2_decap_8
XFILLER_6_855 VPWR VGND sg13g2_decap_8
XFILLER_10_895 VPWR VGND sg13g2_decap_8
XFILLER_3_23 VPWR VGND sg13g2_decap_8
XFILLER_49_542 VPWR VGND sg13g2_decap_8
XFILLER_3_1018 VPWR VGND sg13g2_decap_8
XFILLER_37_737 VPWR VGND sg13g2_decap_8
XFILLER_33_921 VPWR VGND sg13g2_decap_8
X_3911_ _1346_ _1347_ _1345_ _1349_ VPWR VGND _1348_ sg13g2_nand4_1
X_3842_ _1287_ net63 _1281_ VPWR VGND sg13g2_nand2_1
XFILLER_20_604 VPWR VGND sg13g2_decap_8
XFILLER_33_998 VPWR VGND sg13g2_decap_8
XFILLER_32_497 VPWR VGND sg13g2_decap_8
X_3773_ net14 net598 _1239_ _1240_ VPWR VGND sg13g2_nor3_1
X_2724_ net57 sap_3_inst.out\[3\] net766 _0021_ VPWR VGND sg13g2_mux2_1
X_2655_ net754 net744 net756 net746 _0249_ VPWR VGND sg13g2_nor4_1
X_2586_ _1988_ VPWR _1997_ VGND net567 _1996_ sg13g2_o21ai_1
XFILLER_28_715 VPWR VGND sg13g2_decap_8
X_4187_ net794 VGND VPWR _0165_ sap_3_inst.reg_file.array_serializer_inst.shadow_reg\[3\]
+ clknet_3_7__leaf_clk sg13g2_dfrbpq_1
X_3207_ _0743_ _1460_ net615 VPWR VGND sg13g2_nand2_1
X_3138_ _0614_ _0628_ net680 _0674_ VPWR VGND sg13g2_nand3_1
X_3069_ _0604_ VPWR _0605_ VGND _1607_ _0600_ sg13g2_o21ai_1
XFILLER_23_431 VPWR VGND sg13g2_decap_8
XFILLER_24_932 VPWR VGND sg13g2_decap_8
XFILLER_11_648 VPWR VGND sg13g2_decap_8
XFILLER_23_486 VPWR VGND sg13g2_decap_8
XFILLER_7_608 VPWR VGND sg13g2_decap_8
XFILLER_3_836 VPWR VGND sg13g2_decap_8
XFILLER_5_4 VPWR VGND sg13g2_decap_8
Xfanout650 _0729_ net650 VPWR VGND sg13g2_buf_8
Xfanout672 _1947_ net672 VPWR VGND sg13g2_buf_8
Xfanout683 _1714_ net683 VPWR VGND sg13g2_buf_1
Xfanout694 _1530_ net694 VPWR VGND sg13g2_buf_8
Xfanout661 _0625_ net661 VPWR VGND sg13g2_buf_2
XFILLER_19_726 VPWR VGND sg13g2_decap_8
XFILLER_46_556 VPWR VGND sg13g2_decap_8
XFILLER_27_781 VPWR VGND sg13g2_decap_8
XFILLER_34_718 VPWR VGND sg13g2_decap_8
XFILLER_42_762 VPWR VGND sg13g2_decap_8
XFILLER_15_976 VPWR VGND sg13g2_decap_8
XFILLER_30_913 VPWR VGND sg13g2_decap_8
XFILLER_6_652 VPWR VGND sg13g2_decap_8
XFILLER_5_140 VPWR VGND sg13g2_fill_2
XFILLER_10_692 VPWR VGND sg13g2_decap_8
X_2440_ _1859_ net620 sap_3_inst.reg_file.array_serializer_inst.data\[8\]\[6\] net634
+ sap_3_inst.reg_file.array_serializer_inst.data\[4\]\[6\] VPWR VGND sg13g2_a22oi_1
X_2371_ _1772_ _1790_ _1792_ VPWR VGND sg13g2_nor2_1
X_4110_ net776 VGND VPWR _0088_ sap_3_inst.reg_file.array_serializer_inst.data\[2\]\[5\]
+ clknet_5_9__leaf_sap_3_inst.alu.clk_regs sg13g2_dfrbpq_2
X_4041_ net788 VGND VPWR _0023_ u_ser.shadow_reg\[5\] clknet_3_2__leaf_clk sg13g2_dfrbpq_1
XFILLER_37_534 VPWR VGND sg13g2_decap_8
XFILLER_33_795 VPWR VGND sg13g2_decap_8
XFILLER_21_968 VPWR VGND sg13g2_decap_8
X_3825_ net15 net605 _1117_ _1275_ VPWR VGND sg13g2_nor3_1
X_3756_ sap_3_inst.reg_file.array_serializer_inst.data\[8\]\[1\] _1226_ net655 _0132_
+ VPWR VGND sg13g2_mux2_1
X_2707_ _0286_ _1653_ _0285_ VPWR VGND sg13g2_nand2_1
X_3687_ _1040_ _1041_ _1181_ _1183_ VPWR VGND sg13g2_nor3_1
X_2638_ _0233_ net625 sap_3_inst.reg_file.array_serializer_inst.data\[3\]\[0\] _1799_
+ sap_3_inst.reg_file.array_serializer_inst.data\[6\]\[0\] VPWR VGND sg13g2_a22oi_1
XFILLER_0_806 VPWR VGND sg13g2_decap_8
X_2569_ _1980_ net632 sap_3_inst.reg_file.array_serializer_inst.data\[10\]\[2\] net634
+ sap_3_inst.reg_file.array_serializer_inst.data\[4\]\[2\] VPWR VGND sg13g2_a22oi_1
XFILLER_28_512 VPWR VGND sg13g2_decap_8
XFILLER_16_718 VPWR VGND sg13g2_decap_8
XFILLER_28_589 VPWR VGND sg13g2_decap_8
XFILLER_43_537 VPWR VGND sg13g2_decap_8
XFILLER_12_924 VPWR VGND sg13g2_decap_8
XFILLER_3_633 VPWR VGND sg13g2_decap_8
XFILLER_2_143 VPWR VGND sg13g2_fill_1
XFILLER_19_523 VPWR VGND sg13g2_decap_8
XFILLER_47_843 VPWR VGND sg13g2_decap_8
XFILLER_0_57 VPWR VGND sg13g2_decap_8
XFILLER_34_515 VPWR VGND sg13g2_decap_8
XFILLER_15_773 VPWR VGND sg13g2_decap_8
XFILLER_14_283 VPWR VGND sg13g2_fill_1
XFILLER_30_710 VPWR VGND sg13g2_decap_8
XFILLER_30_787 VPWR VGND sg13g2_decap_8
XFILLER_31_1023 VPWR VGND sg13g2_decap_4
X_3610_ VPWR VGND _1122_ net661 _1121_ net666 _1123_ _1027_ sg13g2_a221oi_1
X_3541_ net22 _1063_ _1064_ VPWR VGND sg13g2_nor2_1
XFILLER_7_972 VPWR VGND sg13g2_decap_8
X_3472_ net575 _1001_ _1002_ VPWR VGND sg13g2_nor2_2
XFILLER_9_1013 VPWR VGND sg13g2_decap_8
X_2423_ VPWR VGND _1842_ _1715_ _1841_ net689 _1844_ _1743_ sg13g2_a221oi_1
X_2354_ _1774_ net697 net682 _1775_ VPWR VGND sg13g2_a21o_1
XFILLER_29_0 VPWR VGND sg13g2_fill_1
X_2285_ VPWR VGND net724 _1571_ _1705_ _1586_ _1706_ _1604_ sg13g2_a221oi_1
X_4024_ _0196_ _1434_ _1431_ _1433_ net58 VPWR VGND sg13g2_a22oi_1
XFILLER_38_865 VPWR VGND sg13g2_decap_8
XFILLER_25_548 VPWR VGND sg13g2_decap_8
XFILLER_40_529 VPWR VGND sg13g2_decap_8
XFILLER_21_765 VPWR VGND sg13g2_decap_8
XFILLER_33_592 VPWR VGND sg13g2_decap_8
X_3808_ net604 sap_3_inst.reg_file.array_serializer_inst.data\[10\]\[1\] _1262_ _0148_
+ VPWR VGND sg13g2_a21o_1
X_3739_ _1215_ VPWR _0126_ VGND _1442_ _1211_ sg13g2_o21ai_1
XFILLER_0_603 VPWR VGND sg13g2_decap_8
XFILLER_29_832 VPWR VGND sg13g2_decap_8
XFILLER_16_515 VPWR VGND sg13g2_decap_8
XFILLER_18_64 VPWR VGND sg13g2_fill_1
XFILLER_28_375 VPWR VGND sg13g2_fill_1
XFILLER_44_857 VPWR VGND sg13g2_decap_8
XFILLER_12_721 VPWR VGND sg13g2_decap_8
XFILLER_15_1018 VPWR VGND sg13g2_decap_8
XFILLER_7_213 VPWR VGND sg13g2_fill_2
XFILLER_11_275 VPWR VGND sg13g2_fill_2
XFILLER_12_798 VPWR VGND sg13g2_decap_8
XFILLER_8_769 VPWR VGND sg13g2_decap_8
XFILLER_4_964 VPWR VGND sg13g2_decap_8
XFILLER_39_607 VPWR VGND sg13g2_decap_8
XFILLER_47_640 VPWR VGND sg13g2_decap_8
X_2070_ VPWR _1493_ sap_3_inst.reg_file.array_serializer_inst.data\[8\]\[7\] VGND
+ sg13g2_inv_1
XFILLER_35_835 VPWR VGND sg13g2_decap_8
XFILLER_34_345 VPWR VGND sg13g2_fill_2
XFILLER_15_570 VPWR VGND sg13g2_decap_8
X_2972_ VGND VPWR net745 net672 _0534_ _0502_ sg13g2_a21oi_1
XFILLER_30_584 VPWR VGND sg13g2_decap_8
X_3524_ net575 _0906_ _1050_ VPWR VGND sg13g2_nor2_2
X_3455_ _0766_ VPWR _0986_ VGND net559 _0853_ sg13g2_o21ai_1
X_2406_ _1826_ _1827_ VPWR VGND sg13g2_inv_4
X_3386_ net560 _0918_ _0919_ VPWR VGND sg13g2_nor2_1
X_2337_ _1758_ _1682_ _1757_ VPWR VGND sg13g2_nand2_1
X_2268_ net707 VPWR _1689_ VGND _1687_ _1688_ sg13g2_o21ai_1
XFILLER_29_128 VPWR VGND sg13g2_fill_2
X_4007_ _1422_ VPWR _1423_ VGND net77 _0187_ sg13g2_o21ai_1
XFILLER_38_662 VPWR VGND sg13g2_decap_8
X_2199_ _1437_ net730 _1620_ VPWR VGND sg13g2_nor2_2
XFILLER_26_835 VPWR VGND sg13g2_decap_8
XFILLER_25_389 VPWR VGND sg13g2_fill_1
XFILLER_21_562 VPWR VGND sg13g2_decap_8
XFILLER_1_912 VPWR VGND sg13g2_decap_8
XFILLER_49_927 VPWR VGND sg13g2_decap_8
Xhold30 sap_3_outputReg_serial VPWR VGND net77 sg13g2_dlygate4sd3_1
XFILLER_0_477 VPWR VGND sg13g2_decap_8
XFILLER_1_989 VPWR VGND sg13g2_decap_8
XFILLER_48_437 VPWR VGND sg13g2_decap_8
XFILLER_35_109 VPWR VGND sg13g2_fill_2
XFILLER_17_857 VPWR VGND sg13g2_decap_8
XFILLER_44_654 VPWR VGND sg13g2_decap_8
XFILLER_32_805 VPWR VGND sg13g2_decap_8
XFILLER_40_893 VPWR VGND sg13g2_decap_8
XFILLER_12_595 VPWR VGND sg13g2_decap_8
XFILLER_8_566 VPWR VGND sg13g2_decap_8
XFILLER_4_761 VPWR VGND sg13g2_decap_8
X_3240_ _0772_ _0773_ _0770_ _0776_ VPWR VGND _0774_ sg13g2_nand4_1
XFILLER_6_1027 VPWR VGND sg13g2_fill_2
XFILLER_6_1016 VPWR VGND sg13g2_decap_8
X_3171_ VGND VPWR net697 _1614_ _0707_ net682 sg13g2_a21oi_1
X_2122_ _1543_ net725 net727 VPWR VGND sg13g2_nand2b_1
X_2053_ VPWR _1476_ sap_3_inst.reg_file.array_serializer_inst.data\[8\]\[5\] VGND
+ sg13g2_inv_1
XFILLER_35_632 VPWR VGND sg13g2_decap_8
X_2955_ _0492_ _0516_ _0518_ VPWR VGND sg13g2_nor2_1
X_2886_ _0451_ _0426_ _0450_ VPWR VGND sg13g2_nand2_1
X_3507_ net562 sap_3_inst.reg_file.array_serializer_inst.data\[0\]\[7\] _1035_ _0074_
+ VPWR VGND sg13g2_a21o_1
XFILLER_44_1011 VPWR VGND sg13g2_decap_8
X_3438_ _0967_ _0968_ _0969_ VPWR VGND sg13g2_and2_1
X_3369_ net11 net571 _0903_ VPWR VGND sg13g2_nor2_1
XFILLER_39_971 VPWR VGND sg13g2_decap_8
XFILLER_45_429 VPWR VGND sg13g2_decap_8
XFILLER_26_632 VPWR VGND sg13g2_decap_8
XFILLER_38_470 VPWR VGND sg13g2_fill_1
XFILLER_25_120 VPWR VGND sg13g2_fill_2
XFILLER_14_838 VPWR VGND sg13g2_decap_8
XFILLER_25_153 VPWR VGND sg13g2_fill_1
XFILLER_41_668 VPWR VGND sg13g2_decap_8
X_4025__3 VPWR net37 clknet_leaf_2_sap_3_inst.alu.clk VGND sg13g2_inv_1
XFILLER_5_558 VPWR VGND sg13g2_decap_8
Xoutput20 net20 uio_out[3] VPWR VGND sg13g2_buf_1
XFILLER_49_724 VPWR VGND sg13g2_decap_8
XFILLER_1_786 VPWR VGND sg13g2_decap_8
XFILLER_37_919 VPWR VGND sg13g2_decap_8
XFILLER_17_654 VPWR VGND sg13g2_decap_8
XFILLER_45_996 VPWR VGND sg13g2_decap_8
XFILLER_44_451 VPWR VGND sg13g2_decap_8
XFILLER_16_164 VPWR VGND sg13g2_fill_1
XFILLER_32_602 VPWR VGND sg13g2_decap_8
XFILLER_32_679 VPWR VGND sg13g2_decap_8
XFILLER_40_690 VPWR VGND sg13g2_decap_8
XFILLER_9_831 VPWR VGND sg13g2_decap_8
X_2740_ net713 _0306_ _0308_ _0309_ VPWR VGND sg13g2_or3_1
XFILLER_31_189 VPWR VGND sg13g2_fill_2
X_2671_ _0263_ _1569_ _1786_ VPWR VGND sg13g2_nand2b_1
X_3223_ _0759_ sap_3_inst.reg_file.array_serializer_inst.data\[9\]\[5\] net655 VPWR
+ VGND sg13g2_nand2_1
XFILLER_39_212 VPWR VGND sg13g2_fill_2
X_3154_ _0674_ VPWR _0690_ VGND _0683_ _0689_ sg13g2_o21ai_1
X_3085_ _0263_ _0617_ _0619_ _0620_ _0621_ VPWR VGND sg13g2_nor4_1
X_2105_ _1525_ VPWR _1526_ VGND _1509_ _1515_ sg13g2_o21ai_1
X_2036_ VPWR _1459_ sap_3_inst.reg_file.array_serializer_inst.data\[4\]\[1\] VGND
+ sg13g2_inv_1
XFILLER_36_941 VPWR VGND sg13g2_decap_8
X_3987_ _1406_ sap_3_inst.alu.act\[6\] net548 VPWR VGND sg13g2_nand2_1
XFILLER_23_668 VPWR VGND sg13g2_decap_8
X_2938_ _0471_ VPWR _0501_ VGND net747 net671 sg13g2_o21ai_1
X_2869_ _0323_ _0431_ _0435_ VPWR VGND sg13g2_nor2_1
XFILLER_2_539 VPWR VGND sg13g2_decap_8
XFILLER_19_908 VPWR VGND sg13g2_decap_8
XFILLER_46_738 VPWR VGND sg13g2_decap_8
XFILLER_27_963 VPWR VGND sg13g2_decap_8
Xclkbuf_3_6__f_clk clknet_0_clk clknet_3_6__leaf_clk VPWR VGND sg13g2_buf_8
XFILLER_42_944 VPWR VGND sg13g2_decap_8
XFILLER_14_635 VPWR VGND sg13g2_decap_8
XFILLER_41_465 VPWR VGND sg13g2_decap_8
XFILLER_13_167 VPWR VGND sg13g2_fill_1
XFILLER_6_834 VPWR VGND sg13g2_decap_8
XFILLER_5_311 VPWR VGND sg13g2_fill_2
XFILLER_10_874 VPWR VGND sg13g2_decap_8
XFILLER_47_9 VPWR VGND sg13g2_fill_1
XFILLER_3_13 VPWR VGND sg13g2_fill_1
XFILLER_49_521 VPWR VGND sg13g2_decap_8
XFILLER_1_583 VPWR VGND sg13g2_decap_8
XFILLER_37_716 VPWR VGND sg13g2_decap_8
XFILLER_49_598 VPWR VGND sg13g2_decap_8
XFILLER_17_462 VPWR VGND sg13g2_fill_1
XFILLER_18_985 VPWR VGND sg13g2_decap_8
XFILLER_33_900 VPWR VGND sg13g2_decap_8
XFILLER_45_793 VPWR VGND sg13g2_decap_8
X_3910_ _1348_ _1306_ sap_3_inst.reg_file.array_serializer_inst.data\[1\]\[3\] _1302_
+ sap_3_inst.reg_file.array_serializer_inst.data\[9\]\[3\] VPWR VGND sg13g2_a22oi_1
XFILLER_33_977 VPWR VGND sg13g2_decap_8
X_3841_ VGND VPWR net769 _0156_ _1286_ net72 sg13g2_a21oi_1
X_3772_ net574 _1238_ _1239_ VPWR VGND sg13g2_nor2_1
X_2723_ net62 sap_3_inst.out\[2\] net766 _0020_ VPWR VGND sg13g2_mux2_1
X_2654_ _1566_ _1940_ _0248_ VPWR VGND sg13g2_nor2_1
X_2585_ _1991_ _1995_ _1996_ VPWR VGND sg13g2_nor2_1
XFILLER_41_1025 VPWR VGND sg13g2_decap_4
X_4186_ net793 VGND VPWR _0164_ sap_3_inst.reg_file.array_serializer_inst.shadow_reg\[2\]
+ clknet_3_3__leaf_clk sg13g2_dfrbpq_1
X_3206_ _0741_ VPWR _0742_ VGND _1461_ net590 sg13g2_o21ai_1
X_3137_ _0673_ _0658_ _0670_ VPWR VGND sg13g2_nand2_1
XFILLER_27_226 VPWR VGND sg13g2_fill_2
XFILLER_43_719 VPWR VGND sg13g2_decap_8
X_3068_ _1601_ VPWR _0604_ VGND _1581_ _1626_ sg13g2_o21ai_1
XFILLER_24_911 VPWR VGND sg13g2_decap_8
X_2019_ VPWR _1442_ sap_3_inst.reg_file.array_serializer_inst.data\[7\]\[3\] VGND
+ sg13g2_inv_1
XFILLER_35_281 VPWR VGND sg13g2_fill_1
XFILLER_23_465 VPWR VGND sg13g2_decap_8
XFILLER_24_988 VPWR VGND sg13g2_decap_8
XFILLER_11_627 VPWR VGND sg13g2_decap_8
XFILLER_12_33 VPWR VGND sg13g2_fill_2
XFILLER_3_815 VPWR VGND sg13g2_decap_8
Xfanout651 net652 net651 VPWR VGND sg13g2_buf_8
Xfanout640 net642 net640 VPWR VGND sg13g2_buf_8
Xfanout673 _0260_ net673 VPWR VGND sg13g2_buf_8
Xfanout684 _1674_ net684 VPWR VGND sg13g2_buf_8
XFILLER_19_705 VPWR VGND sg13g2_decap_8
Xfanout662 _1746_ net662 VPWR VGND sg13g2_buf_8
Xfanout695 _1530_ net695 VPWR VGND sg13g2_buf_8
XFILLER_46_535 VPWR VGND sg13g2_decap_8
XFILLER_18_226 VPWR VGND sg13g2_fill_2
XFILLER_27_760 VPWR VGND sg13g2_decap_8
XFILLER_42_741 VPWR VGND sg13g2_decap_8
XFILLER_14_421 VPWR VGND sg13g2_fill_2
XFILLER_15_955 VPWR VGND sg13g2_decap_8
XFILLER_18_1027 VPWR VGND sg13g2_fill_2
XFILLER_30_969 VPWR VGND sg13g2_decap_8
XFILLER_10_671 VPWR VGND sg13g2_decap_8
XFILLER_6_631 VPWR VGND sg13g2_decap_8
X_2370_ VPWR _1791_ _1790_ VGND sg13g2_inv_1
X_4040_ net788 VGND VPWR _0022_ u_ser.shadow_reg\[4\] clknet_3_2__leaf_clk sg13g2_dfrbpq_1
XFILLER_37_513 VPWR VGND sg13g2_decap_8
XFILLER_49_395 VPWR VGND sg13g2_decap_8
XFILLER_24_218 VPWR VGND sg13g2_fill_2
XFILLER_45_590 VPWR VGND sg13g2_decap_8
XFILLER_18_782 VPWR VGND sg13g2_decap_8
XFILLER_32_240 VPWR VGND sg13g2_fill_1
XFILLER_33_774 VPWR VGND sg13g2_decap_8
XFILLER_21_947 VPWR VGND sg13g2_decap_8
X_3824_ _1270_ VPWR _0152_ VGND _1271_ _1274_ sg13g2_o21ai_1
XFILLER_20_457 VPWR VGND sg13g2_fill_1
X_3755_ _1224_ _1225_ _1226_ VPWR VGND _1144_ sg13g2_nand3b_1
X_2706_ VGND VPWR _1616_ _0284_ _0285_ net696 sg13g2_a21oi_1
X_3686_ _1182_ net569 VPWR VGND net647 sg13g2_nand2b_2
X_2637_ VPWR VGND sap_3_inst.reg_file.array_serializer_inst.data\[11\]\[0\] net639
+ net622 sap_3_inst.reg_file.array_serializer_inst.data\[9\]\[0\] _0232_ net678 sg13g2_a221oi_1
X_2568_ _1979_ net620 sap_3_inst.reg_file.array_serializer_inst.data\[8\]\[2\] net626
+ sap_3_inst.reg_file.array_serializer_inst.data\[3\]\[2\] VPWR VGND sg13g2_a22oi_1
X_2499_ VPWR VGND sap_3_inst.reg_file.array_serializer_inst.data\[1\]\[4\] net621
+ net638 sap_3_inst.reg_file.array_serializer_inst.data\[10\]\[4\] _1914_ net677 sg13g2_a221oi_1
X_4169_ net795 VGND VPWR _0147_ sap_3_inst.reg_file.array_serializer_inst.data\[10\]\[0\]
+ clknet_5_29__leaf_sap_3_inst.alu.clk_regs sg13g2_dfrbpq_2
XFILLER_43_516 VPWR VGND sg13g2_decap_8
XFILLER_28_568 VPWR VGND sg13g2_decap_8
XFILLER_12_903 VPWR VGND sg13g2_decap_8
XFILLER_24_785 VPWR VGND sg13g2_decap_8
Xclkbuf_4_12_0_sap_3_inst.alu.clk_regs clknet_0_sap_3_inst.alu.clk_regs clknet_4_12_0_sap_3_inst.alu.clk_regs
+ VPWR VGND sg13g2_buf_8
XFILLER_7_439 VPWR VGND sg13g2_fill_1
XFILLER_23_98 VPWR VGND sg13g2_fill_1
XFILLER_3_612 VPWR VGND sg13g2_decap_8
XFILLER_2_122 VPWR VGND sg13g2_decap_4
XFILLER_3_689 VPWR VGND sg13g2_decap_8
XFILLER_47_822 VPWR VGND sg13g2_decap_8
XFILLER_19_502 VPWR VGND sg13g2_decap_8
XFILLER_0_14 VPWR VGND sg13g2_decap_8
XFILLER_47_899 VPWR VGND sg13g2_decap_8
XFILLER_0_36 VPWR VGND sg13g2_decap_8
XFILLER_19_579 VPWR VGND sg13g2_decap_8
XFILLER_15_752 VPWR VGND sg13g2_decap_8
XFILLER_30_766 VPWR VGND sg13g2_decap_8
XFILLER_31_1002 VPWR VGND sg13g2_decap_8
X_3540_ net583 _0975_ _1063_ VPWR VGND sg13g2_nor2_2
XFILLER_7_951 VPWR VGND sg13g2_decap_8
XFILLER_11_991 VPWR VGND sg13g2_decap_8
X_3471_ _1000_ VPWR _1001_ VGND net560 _0855_ sg13g2_o21ai_1
X_2422_ _1843_ net689 _1743_ VPWR VGND sg13g2_nand2_1
X_2353_ _1436_ _1563_ _1774_ VPWR VGND sg13g2_nor2_2
X_2284_ _1584_ net708 _1703_ _1705_ VPWR VGND sg13g2_nor3_1
X_4023_ net767 _1410_ u_ser.bit_pos\[1\] _1431_ VPWR VGND sg13g2_nand3_1
XFILLER_38_844 VPWR VGND sg13g2_decap_8
XFILLER_25_527 VPWR VGND sg13g2_decap_8
XFILLER_40_508 VPWR VGND sg13g2_decap_8
XFILLER_33_571 VPWR VGND sg13g2_decap_8
XFILLER_21_744 VPWR VGND sg13g2_decap_8
X_3807_ VPWR VGND _1261_ net603 _0884_ net577 _1262_ _0874_ sg13g2_a221oi_1
X_3738_ _1055_ _1211_ _1054_ _1215_ VPWR VGND sg13g2_nand3_1
X_3669_ VGND VPWR net581 _0999_ _1167_ net597 sg13g2_a21oi_1
Xclkbuf_4_4_0_sap_3_inst.alu.clk_regs clknet_0_sap_3_inst.alu.clk_regs clknet_4_4_0_sap_3_inst.alu.clk_regs
+ VPWR VGND sg13g2_buf_8
XFILLER_0_659 VPWR VGND sg13g2_decap_8
XFILLER_48_619 VPWR VGND sg13g2_decap_8
XFILLER_29_811 VPWR VGND sg13g2_decap_8
XFILLER_29_888 VPWR VGND sg13g2_decap_8
XFILLER_44_836 VPWR VGND sg13g2_decap_8
XFILLER_12_700 VPWR VGND sg13g2_decap_8
XFILLER_24_582 VPWR VGND sg13g2_decap_8
XFILLER_31_519 VPWR VGND sg13g2_decap_8
XFILLER_34_75 VPWR VGND sg13g2_fill_2
XFILLER_12_777 VPWR VGND sg13g2_decap_8
XFILLER_8_748 VPWR VGND sg13g2_decap_8
XFILLER_4_943 VPWR VGND sg13g2_decap_8
XFILLER_3_486 VPWR VGND sg13g2_decap_8
XFILLER_19_365 VPWR VGND sg13g2_fill_1
XFILLER_35_814 VPWR VGND sg13g2_decap_8
XFILLER_47_696 VPWR VGND sg13g2_decap_8
XFILLER_46_173 VPWR VGND sg13g2_fill_2
XFILLER_43_880 VPWR VGND sg13g2_decap_8
X_2971_ net542 net617 _0533_ VPWR VGND sg13g2_nor2b_1
XFILLER_22_519 VPWR VGND sg13g2_decap_8
XFILLER_30_563 VPWR VGND sg13g2_decap_8
X_3523_ net19 _1048_ _1049_ VPWR VGND sg13g2_nor2_2
X_3454_ VGND VPWR net578 _0983_ _0985_ net562 sg13g2_a21oi_1
XFILLER_41_0 VPWR VGND sg13g2_fill_1
X_2405_ VGND VPWR _1515_ _1825_ _1826_ _1813_ sg13g2_a21oi_1
X_3385_ _0872_ _0895_ _0857_ _0918_ VPWR VGND _0917_ sg13g2_nand4_1
X_2336_ _1757_ net696 net706 VPWR VGND sg13g2_nand2_1
X_2267_ VGND VPWR _1688_ _1638_ _1577_ sg13g2_or2_1
XFILLER_38_641 VPWR VGND sg13g2_decap_8
X_4006_ _1418_ _1420_ _0187_ _1422_ VPWR VGND _1421_ sg13g2_nand4_1
XFILLER_26_814 VPWR VGND sg13g2_decap_8
X_2198_ _1619_ net680 _1586_ VPWR VGND sg13g2_nand2b_1
XFILLER_38_1019 VPWR VGND sg13g2_decap_8
XFILLER_21_541 VPWR VGND sg13g2_decap_8
XFILLER_49_906 VPWR VGND sg13g2_decap_8
XFILLER_1_968 VPWR VGND sg13g2_decap_8
XFILLER_48_416 VPWR VGND sg13g2_decap_8
Xhold31 sap_3_inst.reg_file.array_serializer_inst.word_index\[3\] VPWR VGND net78
+ sg13g2_dlygate4sd3_1
XFILLER_0_456 VPWR VGND sg13g2_decap_8
XFILLER_29_53 VPWR VGND sg13g2_fill_2
Xhold20 _0161_ VPWR VGND net67 sg13g2_dlygate4sd3_1
XFILLER_44_633 VPWR VGND sg13g2_decap_8
XFILLER_17_836 VPWR VGND sg13g2_decap_8
XFILLER_29_685 VPWR VGND sg13g2_decap_8
XFILLER_45_41 VPWR VGND sg13g2_fill_2
XFILLER_16_368 VPWR VGND sg13g2_fill_1
XFILLER_25_891 VPWR VGND sg13g2_decap_8
XFILLER_40_872 VPWR VGND sg13g2_decap_8
XFILLER_8_545 VPWR VGND sg13g2_decap_8
XFILLER_12_574 VPWR VGND sg13g2_decap_8
XFILLER_6_57 VPWR VGND sg13g2_fill_2
XFILLER_4_740 VPWR VGND sg13g2_decap_8
X_3170_ _0696_ _0701_ _0703_ _0705_ _0706_ VPWR VGND sg13g2_nor4_1
X_2121_ _1439_ net727 _1542_ VPWR VGND sg13g2_nor2_1
X_2052_ _1475_ sap_3_inst.reg_file.array_serializer_inst.data\[0\]\[5\] VPWR VGND
+ sg13g2_inv_2
XFILLER_48_983 VPWR VGND sg13g2_decap_8
XFILLER_35_611 VPWR VGND sg13g2_decap_8
XFILLER_47_493 VPWR VGND sg13g2_decap_8
XFILLER_35_688 VPWR VGND sg13g2_decap_8
X_2954_ _0492_ _0516_ _0517_ VPWR VGND sg13g2_and2_1
X_2885_ _0450_ _0447_ _0448_ VPWR VGND sg13g2_xnor2_1
XFILLER_31_883 VPWR VGND sg13g2_decap_8
X_3506_ VPWR VGND _1034_ net562 _1030_ _1022_ _1035_ _1026_ sg13g2_a221oi_1
X_3437_ _0968_ _1475_ net612 VPWR VGND sg13g2_nand2_1
X_3368_ net19 _0838_ _0902_ VPWR VGND sg13g2_nor2_1
X_2319_ VPWR _1740_ _1739_ VGND sg13g2_inv_1
XFILLER_45_408 VPWR VGND sg13g2_decap_8
Xheichips25_template_33 VPWR VGND uo_out[6] sg13g2_tielo
X_3299_ VGND VPWR _1569_ _0834_ _0835_ _0275_ sg13g2_a21oi_1
XFILLER_39_950 VPWR VGND sg13g2_decap_8
XFILLER_26_611 VPWR VGND sg13g2_decap_8
XFILLER_14_817 VPWR VGND sg13g2_decap_8
XFILLER_26_688 VPWR VGND sg13g2_decap_8
XFILLER_41_647 VPWR VGND sg13g2_decap_8
XFILLER_40_146 VPWR VGND sg13g2_fill_2
XFILLER_21_360 VPWR VGND sg13g2_fill_1
XFILLER_22_883 VPWR VGND sg13g2_decap_8
XFILLER_5_537 VPWR VGND sg13g2_decap_8
XFILLER_31_76 VPWR VGND sg13g2_fill_2
Xoutput21 net21 uio_out[4] VPWR VGND sg13g2_buf_1
Xoutput10 net10 uio_oe[1] VPWR VGND sg13g2_buf_1
XFILLER_49_703 VPWR VGND sg13g2_decap_8
XFILLER_1_765 VPWR VGND sg13g2_decap_8
Xclkbuf_5_6__f_sap_3_inst.alu.clk_regs clknet_4_3_0_sap_3_inst.alu.clk_regs clknet_5_6__leaf_sap_3_inst.alu.clk_regs
+ VPWR VGND sg13g2_buf_8
XFILLER_29_482 VPWR VGND sg13g2_decap_8
XFILLER_44_430 VPWR VGND sg13g2_decap_8
XFILLER_17_633 VPWR VGND sg13g2_decap_8
XFILLER_45_975 VPWR VGND sg13g2_decap_8
XFILLER_31_113 VPWR VGND sg13g2_fill_2
XFILLER_32_658 VPWR VGND sg13g2_decap_8
XFILLER_9_810 VPWR VGND sg13g2_decap_8
XFILLER_13_894 VPWR VGND sg13g2_decap_8
X_2670_ VGND VPWR net673 _0261_ _0262_ net708 sg13g2_a21oi_1
XFILLER_9_887 VPWR VGND sg13g2_decap_8
X_3222_ _0758_ sap_3_inst.reg_file.array_serializer_inst.data\[11\]\[5\] net606 VPWR
+ VGND sg13g2_nand2_1
X_3153_ _0685_ _0688_ _0689_ VPWR VGND net680 sg13g2_nand3b_1
X_2104_ _1518_ _1520_ _1516_ _1525_ VPWR VGND _1522_ sg13g2_nand4_1
XFILLER_48_780 VPWR VGND sg13g2_decap_8
X_3084_ VGND VPWR _0616_ _0618_ _0620_ _1703_ sg13g2_a21oi_1
XFILLER_27_419 VPWR VGND sg13g2_fill_2
XFILLER_36_920 VPWR VGND sg13g2_decap_8
X_2035_ VPWR _1458_ sap_3_inst.reg_file.array_serializer_inst.data\[6\]\[1\] VGND
+ sg13g2_inv_1
XFILLER_36_997 VPWR VGND sg13g2_decap_8
XFILLER_23_647 VPWR VGND sg13g2_decap_8
XFILLER_11_809 VPWR VGND sg13g2_decap_8
X_3986_ VGND VPWR net746 net663 _1405_ _1404_ sg13g2_a21oi_1
X_2937_ _0500_ net745 net671 VPWR VGND sg13g2_xnor2_1
XFILLER_31_680 VPWR VGND sg13g2_decap_8
X_2868_ _0428_ VPWR _0434_ VGND net564 _0433_ sg13g2_o21ai_1
X_2799_ _0367_ _0355_ _0320_ VPWR VGND sg13g2_nand2b_1
XFILLER_2_518 VPWR VGND sg13g2_decap_8
Xfanout800 net801 net800 VPWR VGND sg13g2_buf_8
Xclkbuf_5_13__f_sap_3_inst.alu.clk_regs clknet_4_6_0_sap_3_inst.alu.clk_regs clknet_5_13__leaf_sap_3_inst.alu.clk_regs
+ VPWR VGND sg13g2_buf_8
XFILLER_46_717 VPWR VGND sg13g2_decap_8
XFILLER_27_942 VPWR VGND sg13g2_decap_8
XFILLER_42_923 VPWR VGND sg13g2_decap_8
XFILLER_14_614 VPWR VGND sg13g2_decap_8
XFILLER_41_422 VPWR VGND sg13g2_fill_2
XFILLER_26_485 VPWR VGND sg13g2_decap_8
XFILLER_22_680 VPWR VGND sg13g2_decap_8
XFILLER_10_853 VPWR VGND sg13g2_decap_8
XFILLER_6_813 VPWR VGND sg13g2_decap_8
XFILLER_49_500 VPWR VGND sg13g2_decap_8
XFILLER_1_562 VPWR VGND sg13g2_decap_8
XFILLER_3_58 VPWR VGND sg13g2_fill_2
XFILLER_49_577 VPWR VGND sg13g2_decap_8
XFILLER_18_964 VPWR VGND sg13g2_decap_8
XFILLER_45_772 VPWR VGND sg13g2_decap_8
XFILLER_33_956 VPWR VGND sg13g2_decap_8
X_3840_ VGND VPWR net769 _0156_ _0157_ _1285_ sg13g2_a21oi_1
X_3771_ _1238_ _0955_ _0969_ VPWR VGND sg13g2_xnor2_1
XFILLER_20_639 VPWR VGND sg13g2_decap_8
X_2722_ net61 sap_3_inst.out\[1\] net766 _0019_ VPWR VGND sg13g2_mux2_1
XFILLER_13_691 VPWR VGND sg13g2_decap_8
XFILLER_9_684 VPWR VGND sg13g2_decap_8
X_2653_ _0237_ _0240_ _0247_ net17 VPWR VGND sg13g2_or3_1
X_2584_ _1993_ _1994_ _1992_ _1995_ VPWR VGND sg13g2_nand3_1
XFILLER_41_1004 VPWR VGND sg13g2_decap_8
X_4185_ net793 VGND VPWR _0163_ sap_3_inst.reg_file.array_serializer_inst.shadow_reg\[1\]
+ clknet_3_3__leaf_clk sg13g2_dfrbpq_1
X_3205_ _0741_ net588 sap_3_inst.reg_file.array_serializer_inst.data\[1\]\[0\] net641
+ sap_3_inst.reg_file.array_serializer_inst.data\[3\]\[0\] VPWR VGND sg13g2_a22oi_1
X_3136_ _0657_ net665 _0672_ VPWR VGND sg13g2_nor2_2
X_3067_ _1582_ _1662_ _0603_ VPWR VGND sg13g2_nor2_1
X_2018_ VPWR _1441_ sap_3_inst.reg_file.array_serializer_inst.data\[8\]\[3\] VGND
+ sg13g2_inv_1
XFILLER_23_400 VPWR VGND sg13g2_decap_8
XFILLER_23_411 VPWR VGND sg13g2_fill_2
XFILLER_36_794 VPWR VGND sg13g2_decap_8
XFILLER_11_606 VPWR VGND sg13g2_decap_8
XFILLER_24_967 VPWR VGND sg13g2_decap_8
X_3969_ _1392_ _1393_ _0311_ _1394_ VPWR VGND sg13g2_nand3_1
Xfanout630 _1798_ net630 VPWR VGND sg13g2_buf_8
Xfanout641 net642 net641 VPWR VGND sg13g2_buf_8
Xfanout663 net664 net663 VPWR VGND sg13g2_buf_8
Xfanout674 _0260_ net674 VPWR VGND sg13g2_buf_8
Xfanout685 _1674_ net685 VPWR VGND sg13g2_buf_8
Xfanout652 net654 net652 VPWR VGND sg13g2_buf_8
XFILLER_46_514 VPWR VGND sg13g2_decap_8