* NGSPICE file created from heichips25_template.ext - technology: ihp-sg13g2

* Black-box entry subcircuit for sg13g2_a221oi_1 abstract view
.subckt sg13g2_a221oi_1 VDD VSS B2 C1 B1 A1 Y A2
.ends

* Black-box entry subcircuit for sg13g2_nor4_1 abstract view
.subckt sg13g2_nor4_1 A B C D Y VDD VSS
.ends

* Black-box entry subcircuit for sg13g2_nor2_1 abstract view
.subckt sg13g2_nor2_1 A B Y VDD VSS
.ends

* Black-box entry subcircuit for sg13g2_fill_1 abstract view
.subckt sg13g2_fill_1 VDD VSS
.ends

* Black-box entry subcircuit for sg13g2_inv_1 abstract view
.subckt sg13g2_inv_1 VDD Y A VSS
.ends

* Black-box entry subcircuit for sg13g2_decap_8 abstract view
.subckt sg13g2_decap_8 VDD VSS
.ends

* Black-box entry subcircuit for sg13g2_nand2_1 abstract view
.subckt sg13g2_nand2_1 Y A B VDD VSS
.ends

* Black-box entry subcircuit for sg13g2_a21oi_1 abstract view
.subckt sg13g2_a21oi_1 VSS VDD A1 A2 Y B1
.ends

* Black-box entry subcircuit for sg13g2_buf_8 abstract view
.subckt sg13g2_buf_8 A X VDD VSS
.ends

* Black-box entry subcircuit for sg13g2_o21ai_1 abstract view
.subckt sg13g2_o21ai_1 B1 VDD Y VSS A1 A2
.ends

* Black-box entry subcircuit for sg13g2_a21o_1 abstract view
.subckt sg13g2_a21o_1 A2 A1 B1 X VDD VSS
.ends

* Black-box entry subcircuit for sg13g2_fill_2 abstract view
.subckt sg13g2_fill_2 VDD VSS
.ends

* Black-box entry subcircuit for sg13g2_a22oi_1 abstract view
.subckt sg13g2_a22oi_1 Y B1 B2 A2 A1 VDD VSS
.ends

* Black-box entry subcircuit for sg13g2_or2_1 abstract view
.subckt sg13g2_or2_1 VSS VDD X B A
.ends

* Black-box entry subcircuit for sg13g2_dfrbpq_2 abstract view
.subckt sg13g2_dfrbpq_2 RESET_B VSS VDD D Q CLK
.ends

* Black-box entry subcircuit for sg13g2_decap_4 abstract view
.subckt sg13g2_decap_4 VDD VSS
.ends

* Black-box entry subcircuit for sg13g2_buf_1 abstract view
.subckt sg13g2_buf_1 A X VDD VSS
.ends

* Black-box entry subcircuit for sg13g2_buf_2 abstract view
.subckt sg13g2_buf_2 A X VDD VSS
.ends

* Black-box entry subcircuit for sg13g2_nand3_1 abstract view
.subckt sg13g2_nand3_1 B C A Y VDD VSS
.ends

* Black-box entry subcircuit for sg13g2_nor3_1 abstract view
.subckt sg13g2_nor3_1 A B C Y VDD VSS
.ends

* Black-box entry subcircuit for sg13g2_mux2_1 abstract view
.subckt sg13g2_mux2_1 A0 A1 S X VDD VSS
.ends

* Black-box entry subcircuit for sg13g2_xor2_1 abstract view
.subckt sg13g2_xor2_1 B A X VDD VSS
.ends

* Black-box entry subcircuit for sg13g2_and2_1 abstract view
.subckt sg13g2_and2_1 A B X VDD VSS
.ends

* Black-box entry subcircuit for sg13g2_nand4_1 abstract view
.subckt sg13g2_nand4_1 B C A Y VDD VSS D
.ends

* Black-box entry subcircuit for sg13g2_nand2b_1 abstract view
.subckt sg13g2_nand2b_1 Y B A_N VDD VSS
.ends

* Black-box entry subcircuit for sg13g2_dlygate4sd3_1 abstract view
.subckt sg13g2_dlygate4sd3_1 A VDD VSS X
.ends

* Black-box entry subcircuit for sg13g2_and3_1 abstract view
.subckt sg13g2_and3_1 X A B C VDD VSS
.ends

* Black-box entry subcircuit for sg13g2_xnor2_1 abstract view
.subckt sg13g2_xnor2_1 Y A B VDD VSS
.ends

* Black-box entry subcircuit for sg13g2_nor2_2 abstract view
.subckt sg13g2_nor2_2 A B Y VDD VSS
.ends

* Black-box entry subcircuit for sg13g2_inv_2 abstract view
.subckt sg13g2_inv_2 Y A VDD VSS
.ends

* Black-box entry subcircuit for sg13g2_nand2_2 abstract view
.subckt sg13g2_nand2_2 Y A B VDD VSS
.ends

* Black-box entry subcircuit for sg13g2_or3_1 abstract view
.subckt sg13g2_or3_1 A B C X VDD VSS
.ends

* Black-box entry subcircuit for sg13g2_inv_4 abstract view
.subckt sg13g2_inv_4 A Y VDD VSS
.ends

* Black-box entry subcircuit for sg13g2_or4_1 abstract view
.subckt sg13g2_or4_1 A B C D X VDD VSS
.ends

* Black-box entry subcircuit for sg13g2_nor4_2 abstract view
.subckt sg13g2_nor4_2 A B C Y VSS VDD D
.ends

* Black-box entry subcircuit for sg13g2_a21o_2 abstract view
.subckt sg13g2_a21o_2 A2 A1 B1 X VDD VSS
.ends

* Black-box entry subcircuit for sg13g2_and4_1 abstract view
.subckt sg13g2_and4_1 A B C D X VDD VSS
.ends

* Black-box entry subcircuit for sg13g2_dfrbpq_1 abstract view
.subckt sg13g2_dfrbpq_1 RESET_B VSS VDD D Q CLK
.ends

* Black-box entry subcircuit for sg13g2_nand2b_2 abstract view
.subckt sg13g2_nand2b_2 Y B VDD VSS A_N
.ends

* Black-box entry subcircuit for sg13g2_nor2b_1 abstract view
.subckt sg13g2_nor2b_1 A B_N Y VDD VSS
.ends

* Black-box entry subcircuit for sg13g2_and3_2 abstract view
.subckt sg13g2_and3_2 X A B C VDD VSS
.ends

* Black-box entry subcircuit for sg13g2_a21oi_2 abstract view
.subckt sg13g2_a21oi_2 VSS VDD B1 Y A2 A1
.ends

* Black-box entry subcircuit for sg13g2_tielo abstract view
.subckt sg13g2_tielo VDD VSS L_LO
.ends

* Black-box entry subcircuit for sg13g2_nor3_2 abstract view
.subckt sg13g2_nor3_2 A B C Y VDD VSS
.ends

* Black-box entry subcircuit for sg13g2_lgcp_1 abstract view
.subckt sg13g2_lgcp_1 GATE CLK GCLK VDD VSS
.ends

* Black-box entry subcircuit for sg13g2_nor2b_2 abstract view
.subckt sg13g2_nor2b_2 A B_N Y VDD VSS
.ends

* Black-box entry subcircuit for sg13g2_mux4_1 abstract view
.subckt sg13g2_mux4_1 S0 A0 A1 A2 A3 S1 X VDD VSS
.ends

* Black-box entry subcircuit for sg13g2_nand3b_1 abstract view
.subckt sg13g2_nand3b_1 B C Y VDD VSS A_N
.ends

.subckt heichips25_template VGND VPWR clk ena rst_n ui_in[0] ui_in[1] ui_in[2] ui_in[3]
+ ui_in[4] ui_in[5] ui_in[6] ui_in[7] uio_in[0] uio_in[1] uio_in[2] uio_in[3] uio_in[4]
+ uio_in[5] uio_in[6] uio_in[7] uio_oe[0] uio_oe[1] uio_oe[2] uio_oe[3] uio_oe[4]
+ uio_oe[5] uio_oe[6] uio_oe[7] uio_out[0] uio_out[1] uio_out[2] uio_out[3] uio_out[4]
+ uio_out[5] uio_out[6] uio_out[7] uo_out[0] uo_out[1] uo_out[2] uo_out[3] uo_out[4]
+ uo_out[5] uo_out[6] uo_out[7]
X_3155_ VPWR VGND _0677_ _0682_ _1703_ _1607_ _0683_ _1622_ sg13g2_a221oi_1
X_3086_ _0603_ _0605_ _0608_ _0613_ _0614_ VPWR VGND sg13g2_nor4_1
X_2106_ net774 net772 _1526_ VPWR VGND sg13g2_nor2_1
XFILLER_27_428 VPWR VGND sg13g2_fill_1
X_2037_ VPWR _1459_ net805 VGND sg13g2_inv_1
XFILLER_36_962 VPWR VGND sg13g2_decap_8
XFILLER_23_645 VPWR VGND sg13g2_decap_8
X_3988_ _1402_ sap_3_inst.alu.act\[3\] net582 VPWR VGND sg13g2_nand2_1
XFILLER_11_818 VPWR VGND sg13g2_decap_8
X_2939_ VGND VPWR net796 _1473_ _0495_ _0462_ sg13g2_a21oi_1
Xfanout831 net832 net831 VPWR VGND sg13g2_buf_8
Xfanout820 net822 net820 VPWR VGND sg13g2_buf_8
Xfanout842 net845 net842 VPWR VGND sg13g2_buf_8
XFILLER_46_737 VPWR VGND sg13g2_decap_8
XFILLER_27_973 VPWR VGND sg13g2_decap_8
XFILLER_26_450 VPWR VGND sg13g2_decap_8
XFILLER_42_954 VPWR VGND sg13g2_decap_8
XFILLER_14_667 VPWR VGND sg13g2_decap_8
XFILLER_41_497 VPWR VGND sg13g2_decap_8
XFILLER_13_177 VPWR VGND sg13g2_fill_1
XFILLER_10_851 VPWR VGND sg13g2_decap_8
XFILLER_6_866 VPWR VGND sg13g2_decap_8
XFILLER_49_575 VPWR VGND sg13g2_decap_8
XFILLER_37_737 VPWR VGND sg13g2_decap_8
XFILLER_18_973 VPWR VGND sg13g2_decap_8
XFILLER_45_781 VPWR VGND sg13g2_decap_8
XFILLER_33_910 VPWR VGND sg13g2_decap_8
XFILLER_17_494 VPWR VGND sg13g2_decap_8
X_3911_ _1341_ VPWR _0163_ VGND _1502_ _0154_ sg13g2_o21ai_1
X_3842_ _1281_ _1278_ _1280_ VPWR VGND sg13g2_nand2_1
XFILLER_33_987 VPWR VGND sg13g2_decap_8
XFILLER_20_626 VPWR VGND sg13g2_decap_8
X_3773_ _1184_ net613 net713 _1234_ VPWR VGND sg13g2_a21o_1
XFILLER_8_170 VPWR VGND sg13g2_fill_2
X_2724_ _0295_ _0294_ _1601_ _0291_ _0290_ VPWR VGND sg13g2_a22oi_1
XFILLER_9_693 VPWR VGND sg13g2_decap_8
X_2655_ _0242_ net629 _0241_ VPWR VGND sg13g2_nand2_1
X_2586_ VGND VPWR _1996_ net628 net802 sg13g2_or2_1
X_3207_ _0735_ sap_3_inst.reg_file.array_serializer_inst.data\[6\]\[5\] net677 VPWR
+ VGND sg13g2_nand2_1
X_4187_ net824 VGND VPWR _0151_ sap_3_inst.reg_file.array_serializer_inst.data\[10\]\[5\]
+ clknet_5_10__leaf_sap_3_inst.alu.clk_regs sg13g2_dfrbpq_2
X_3138_ VPWR _0666_ net676 VGND sg13g2_inv_1
XFILLER_43_707 VPWR VGND sg13g2_decap_8
X_3069_ net738 net32 _0601_ VPWR VGND sg13g2_nor2_1
XFILLER_24_965 VPWR VGND sg13g2_decap_8
XFILLER_11_615 VPWR VGND sg13g2_decap_8
XFILLER_23_442 VPWR VGND sg13g2_decap_8
XFILLER_6_129 VPWR VGND sg13g2_fill_2
XFILLER_5_4 VPWR VGND sg13g2_decap_4
XFILLER_3_869 VPWR VGND sg13g2_decap_8
Xfanout650 _1800_ net650 VPWR VGND sg13g2_buf_8
Xfanout672 net673 net672 VPWR VGND sg13g2_buf_1
Xfanout683 _0338_ net683 VPWR VGND sg13g2_buf_8
Xfanout661 net662 net661 VPWR VGND sg13g2_buf_8
Xfanout694 net695 net694 VPWR VGND sg13g2_buf_2
XFILLER_46_534 VPWR VGND sg13g2_decap_8
XFILLER_19_759 VPWR VGND sg13g2_decap_8
XFILLER_15_910 VPWR VGND sg13g2_decap_8
XFILLER_27_770 VPWR VGND sg13g2_decap_8
XFILLER_42_751 VPWR VGND sg13g2_decap_8
XFILLER_15_987 VPWR VGND sg13g2_decap_8
XFILLER_18_1015 VPWR VGND sg13g2_decap_8
XFILLER_30_968 VPWR VGND sg13g2_decap_8
XFILLER_6_663 VPWR VGND sg13g2_decap_8
X_2440_ _1860_ _1809_ sap_3_inst.reg_file.array_serializer_inst.data\[9\]\[7\] net637
+ sap_3_inst.reg_file.array_serializer_inst.data\[6\]\[7\] VPWR VGND sg13g2_a22oi_1
XFILLER_5_184 VPWR VGND sg13g2_fill_1
X_2371_ _1742_ _1790_ net756 _1791_ VPWR VGND sg13g2_nand3_1
X_4110_ net843 VGND VPWR _0074_ sap_3_inst.reg_file.array_serializer_inst.data\[1\]\[0\]
+ clknet_5_27__leaf_sap_3_inst.alu.clk_regs sg13g2_dfrbpq_2
XFILLER_49_372 VPWR VGND sg13g2_decap_8
XFILLER_37_534 VPWR VGND sg13g2_decap_8
XFILLER_18_770 VPWR VGND sg13g2_decap_8
XFILLER_25_729 VPWR VGND sg13g2_decap_8
XFILLER_21_935 VPWR VGND sg13g2_decap_8
XFILLER_33_784 VPWR VGND sg13g2_decap_8
X_3825_ net13 net608 _1269_ VPWR VGND sg13g2_nor2_1
X_3756_ net711 VPWR _1219_ VGND net651 _0898_ sg13g2_o21ai_1
X_2707_ _1644_ _0284_ _0286_ _0004_ VPWR VGND sg13g2_nor3_1
XFILLER_9_490 VPWR VGND sg13g2_decap_8
X_3687_ _1046_ _1047_ net579 _1175_ VPWR VGND sg13g2_nor3_1
X_2638_ _0218_ _0226_ _0214_ net18 VPWR VGND sg13g2_nand3_1
X_2569_ VGND VPWR net577 _1980_ _1981_ _1973_ sg13g2_a21oi_1
X_4239_ regFile_serial net29 VPWR VGND sg13g2_buf_8
XFILLER_28_567 VPWR VGND sg13g2_decap_8
XFILLER_43_504 VPWR VGND sg13g2_decap_8
XFILLER_24_762 VPWR VGND sg13g2_decap_8
XFILLER_12_924 VPWR VGND sg13g2_decap_8
XFILLER_11_489 VPWR VGND sg13g2_decap_8
XFILLER_20_990 VPWR VGND sg13g2_decap_8
XFILLER_3_666 VPWR VGND sg13g2_decap_8
XFILLER_2_143 VPWR VGND sg13g2_fill_1
XFILLER_47_865 VPWR VGND sg13g2_decap_8
XFILLER_19_556 VPWR VGND sg13g2_decap_8
XFILLER_15_784 VPWR VGND sg13g2_decap_8
XFILLER_30_765 VPWR VGND sg13g2_decap_8
X_3610_ _0088_ _1110_ _1115_ net619 _1492_ VPWR VGND sg13g2_a22oi_1
XFILLER_7_950 VPWR VGND sg13g2_decap_8
X_3541_ net32 _0850_ _1057_ VPWR VGND sg13g2_nor2_1
X_3472_ _0993_ _0994_ net651 _0995_ VPWR VGND sg13g2_mux2_1
X_2423_ _1597_ _1646_ net777 _1843_ VPWR VGND sg13g2_nand3_1
X_2354_ net736 _1717_ net774 _1774_ VPWR VGND sg13g2_nand3_1
XFILLER_29_0 VPWR VGND sg13g2_fill_1
X_2285_ _1575_ net726 _1705_ VPWR VGND sg13g2_nor2_1
XFILLER_38_821 VPWR VGND sg13g2_decap_8
X_4024_ _1429_ net74 _0189_ VPWR VGND sg13g2_xor2_1
XFILLER_38_898 VPWR VGND sg13g2_decap_8
XFILLER_25_526 VPWR VGND sg13g2_decap_8
XFILLER_21_732 VPWR VGND sg13g2_decap_8
XFILLER_33_581 VPWR VGND sg13g2_decap_8
X_3808_ VGND VPWR _1486_ net612 _0144_ _1257_ sg13g2_a21oi_1
X_3739_ _1177_ sap_3_inst.reg_file.array_serializer_inst.data\[7\]\[1\] net593 _0123_
+ VPWR VGND sg13g2_mux2_1
XFILLER_0_647 VPWR VGND sg13g2_decap_8
XFILLER_29_832 VPWR VGND sg13g2_decap_8
XFILLER_44_813 VPWR VGND sg13g2_decap_8
XFILLER_31_507 VPWR VGND sg13g2_decap_8
XFILLER_43_378 VPWR VGND sg13g2_decap_8
XFILLER_12_721 VPWR VGND sg13g2_decap_8
XFILLER_8_747 VPWR VGND sg13g2_decap_8
XFILLER_12_798 VPWR VGND sg13g2_decap_8
XFILLER_7_246 VPWR VGND sg13g2_fill_1
XFILLER_4_942 VPWR VGND sg13g2_decap_8
XFILLER_39_607 VPWR VGND sg13g2_decap_8
X_2070_ VPWR _1492_ sap_3_inst.reg_file.array_serializer_inst.data\[2\]\[6\] VGND
+ sg13g2_inv_1
XFILLER_47_662 VPWR VGND sg13g2_decap_8
XFILLER_35_857 VPWR VGND sg13g2_decap_8
X_2972_ VGND VPWR _0489_ _0525_ _0527_ _0328_ sg13g2_a21oi_1
XFILLER_15_581 VPWR VGND sg13g2_decap_8
XFILLER_30_562 VPWR VGND sg13g2_decap_8
X_3524_ _0700_ net596 _1044_ VPWR VGND sg13g2_and2_1
X_3455_ _0930_ _0953_ _0908_ _0978_ VPWR VGND _0977_ sg13g2_nand4_1
X_2406_ VGND VPWR _1826_ _1825_ net777 sg13g2_or2_1
X_3386_ _0912_ _0910_ net586 VPWR VGND sg13g2_nand2b_1
X_2337_ _1757_ _1747_ net736 _1705_ _1593_ VPWR VGND sg13g2_a22oi_1
X_2268_ _1688_ _1686_ _1687_ _1604_ net735 VPWR VGND sg13g2_a22oi_1
XFILLER_44_109 VPWR VGND sg13g2_fill_2
X_4007_ _1416_ u_ser.bit_pos\[1\] net814 VPWR VGND sg13g2_nand2_1
X_2199_ _1525_ _1562_ _1444_ _1619_ VPWR VGND sg13g2_nand3_1
XFILLER_26_835 VPWR VGND sg13g2_decap_8
XFILLER_38_695 VPWR VGND sg13g2_decap_8
XFILLER_41_805 VPWR VGND sg13g2_decap_8
XFILLER_13_529 VPWR VGND sg13g2_decap_8
XFILLER_5_728 VPWR VGND sg13g2_decap_8
XFILLER_1_934 VPWR VGND sg13g2_decap_8
Xhold30 u_ser.bit_pos\[0\] VPWR VGND net79 sg13g2_dlygate4sd3_1
XFILLER_48_437 VPWR VGND sg13g2_decap_8
XFILLER_17_802 VPWR VGND sg13g2_decap_8
XFILLER_44_610 VPWR VGND sg13g2_decap_8
XFILLER_16_345 VPWR VGND sg13g2_fill_2
XFILLER_17_879 VPWR VGND sg13g2_decap_8
XFILLER_44_687 VPWR VGND sg13g2_decap_8
XFILLER_31_304 VPWR VGND sg13g2_fill_1
XFILLER_25_890 VPWR VGND sg13g2_decap_8
XFILLER_8_544 VPWR VGND sg13g2_decap_8
XFILLER_12_595 VPWR VGND sg13g2_decap_8
X_3240_ net703 net690 sap_3_inst.reg_file.array_serializer_inst.data\[8\]\[2\] _0768_
+ VPWR VGND sg13g2_nand3_1
XFILLER_6_1027 VPWR VGND sg13g2_fill_2
X_3171_ net704 net701 net693 net688 _0699_ VPWR VGND sg13g2_nor4_1
X_2122_ net779 _1444_ net786 net783 _1542_ VPWR VGND sg13g2_nor4_1
X_2053_ VPWR _1475_ sap_3_inst.reg_file.array_serializer_inst.data\[10\]\[4\] VGND
+ sg13g2_inv_1
XFILLER_35_654 VPWR VGND sg13g2_decap_8
XFILLER_23_827 VPWR VGND sg13g2_decap_8
X_2955_ sap_3_inst.alu.tmp\[6\] net790 _0510_ VPWR VGND sg13g2_xor2_1
XFILLER_31_871 VPWR VGND sg13g2_decap_8
X_2886_ net580 net799 _0443_ _0036_ VPWR VGND sg13g2_a21o_1
X_3507_ _1028_ _0992_ _1007_ _1027_ VPWR VGND sg13g2_and3_1
X_3438_ _0962_ _0936_ _0953_ VPWR VGND sg13g2_xnor2_1
X_3369_ _0896_ _0843_ _0883_ VPWR VGND sg13g2_xnor2_1
XFILLER_46_919 VPWR VGND sg13g2_decap_8
XFILLER_39_971 VPWR VGND sg13g2_decap_8
XFILLER_26_632 VPWR VGND sg13g2_decap_8
XFILLER_38_492 VPWR VGND sg13g2_decap_8
XFILLER_41_602 VPWR VGND sg13g2_decap_8
XFILLER_14_849 VPWR VGND sg13g2_decap_8
XFILLER_13_348 VPWR VGND sg13g2_fill_1
XFILLER_41_679 VPWR VGND sg13g2_decap_8
XFILLER_22_860 VPWR VGND sg13g2_decap_8
XFILLER_5_525 VPWR VGND sg13g2_decap_8
Xoutput20 net20 uio_out[3] VPWR VGND sg13g2_buf_1
XFILLER_1_731 VPWR VGND sg13g2_decap_8
XFILLER_49_757 VPWR VGND sg13g2_decap_8
XFILLER_37_919 VPWR VGND sg13g2_decap_8
XFILLER_45_963 VPWR VGND sg13g2_decap_8
XFILLER_44_484 VPWR VGND sg13g2_decap_8
XFILLER_17_676 VPWR VGND sg13g2_decap_8
XFILLER_32_657 VPWR VGND sg13g2_decap_8
XFILLER_20_808 VPWR VGND sg13g2_decap_8
X_2740_ VGND VPWR _1549_ _1717_ _0301_ _1551_ sg13g2_a21oi_1
XFILLER_13_893 VPWR VGND sg13g2_decap_8
XFILLER_9_875 VPWR VGND sg13g2_decap_8
X_2671_ _0253_ _0256_ _1868_ _0257_ VPWR VGND sg13g2_nand3_1
X_3223_ net698 net694 sap_3_inst.reg_file.array_serializer_inst.data\[9\]\[4\] _0751_
+ VPWR VGND net689 sg13g2_nand4_1
X_3154_ _0679_ _0680_ _1787_ _0682_ VPWR VGND _0681_ sg13g2_nand4_1
X_3085_ _0609_ _0611_ _1770_ _0613_ VPWR VGND _0612_ sg13g2_nand4_1
X_2105_ net785 net782 _1525_ VPWR VGND sg13g2_nor2_2
X_2036_ _1458_ net803 VPWR VGND sg13g2_inv_2
XFILLER_36_941 VPWR VGND sg13g2_decap_8
XFILLER_23_624 VPWR VGND sg13g2_decap_8
X_3987_ VGND VPWR _0434_ net709 _1401_ _1400_ sg13g2_a21oi_1
XFILLER_10_329 VPWR VGND sg13g2_fill_2
X_2938_ VPWR VGND net790 _0493_ net682 net796 _0494_ net683 sg13g2_a221oi_1
XFILLER_11_1021 VPWR VGND sg13g2_decap_8
X_2869_ _0427_ _0400_ _0426_ VPWR VGND sg13g2_nand2_2
XFILLER_2_539 VPWR VGND sg13g2_decap_8
Xfanout843 net844 net843 VPWR VGND sg13g2_buf_8
Xfanout832 net835 net832 VPWR VGND sg13g2_buf_8
Xfanout821 net822 net821 VPWR VGND sg13g2_buf_8
Xfanout810 _1304_ net810 VPWR VGND sg13g2_buf_8
XFILLER_46_716 VPWR VGND sg13g2_decap_8
XFILLER_45_237 VPWR VGND sg13g2_fill_1
XFILLER_27_952 VPWR VGND sg13g2_decap_8
Xclkbuf_3_6__f_clk clknet_0_clk clknet_3_6__leaf_clk VPWR VGND sg13g2_buf_8
XFILLER_42_933 VPWR VGND sg13g2_decap_8
XFILLER_41_421 VPWR VGND sg13g2_fill_1
XFILLER_14_646 VPWR VGND sg13g2_decap_8
XFILLER_41_476 VPWR VGND sg13g2_decap_8
XFILLER_10_830 VPWR VGND sg13g2_decap_8
XFILLER_6_845 VPWR VGND sg13g2_decap_8
XFILLER_49_554 VPWR VGND sg13g2_decap_8
XFILLER_37_716 VPWR VGND sg13g2_decap_8
XFILLER_18_952 VPWR VGND sg13g2_decap_8
XFILLER_45_760 VPWR VGND sg13g2_decap_8
XFILLER_44_281 VPWR VGND sg13g2_fill_2
X_3910_ _1339_ _1333_ _1340_ _1341_ VPWR VGND sg13g2_a21o_1
XFILLER_20_605 VPWR VGND sg13g2_decap_8
X_3841_ _1280_ sap_3_inst.reg_file.array_serializer_inst.bit_pos\[2\] _1279_ VPWR
+ VGND sg13g2_nand2_1
XFILLER_33_966 VPWR VGND sg13g2_decap_8
X_3772_ _0937_ _1232_ net651 _1233_ VPWR VGND sg13g2_mux2_1
X_2723_ net744 _1683_ _0293_ _0294_ VPWR VGND sg13g2_or3_1
XFILLER_13_690 VPWR VGND sg13g2_decap_8
XFILLER_9_672 VPWR VGND sg13g2_decap_8
X_2654_ _0241_ sap_3_inst.alu.flags\[0\] _1839_ VPWR VGND sg13g2_nand2_1
X_2585_ VGND VPWR _1995_ _1994_ _1723_ sg13g2_or2_1
X_3206_ _0734_ sap_3_inst.reg_file.array_serializer_inst.data\[4\]\[5\] net674 VPWR
+ VGND sg13g2_nand2_1
X_4186_ net842 VGND VPWR _0150_ sap_3_inst.reg_file.array_serializer_inst.data\[10\]\[4\]
+ clknet_5_30__leaf_sap_3_inst.alu.clk_regs sg13g2_dfrbpq_2
XFILLER_28_749 VPWR VGND sg13g2_decap_8
X_3137_ _0665_ net705 net699 _0658_ VPWR VGND sg13g2_and3_1
X_3068_ _0600_ VPWR _0061_ VGND net738 net572 sg13g2_o21ai_1
X_2019_ net777 _1441_ VPWR VGND sg13g2_inv_4
XFILLER_23_421 VPWR VGND sg13g2_decap_8
XFILLER_24_944 VPWR VGND sg13g2_decap_8
XFILLER_10_115 VPWR VGND sg13g2_fill_2
XFILLER_23_498 VPWR VGND sg13g2_decap_8
XFILLER_3_848 VPWR VGND sg13g2_decap_8
Xfanout651 _0821_ net651 VPWR VGND sg13g2_buf_8
Xfanout640 net641 net640 VPWR VGND sg13g2_buf_8
Xfanout684 net685 net684 VPWR VGND sg13g2_buf_8
Xfanout662 _0702_ net662 VPWR VGND sg13g2_buf_8
Xfanout673 _0692_ net673 VPWR VGND sg13g2_buf_8
XFILLER_46_513 VPWR VGND sg13g2_decap_8
XFILLER_19_738 VPWR VGND sg13g2_decap_8
Xfanout695 net696 net695 VPWR VGND sg13g2_buf_1
XFILLER_37_52 VPWR VGND sg13g2_fill_2
XFILLER_42_730 VPWR VGND sg13g2_decap_8
XFILLER_15_966 VPWR VGND sg13g2_decap_8
XFILLER_30_947 VPWR VGND sg13g2_decap_8
XFILLER_6_642 VPWR VGND sg13g2_decap_8
X_2370_ net745 net763 net777 _1790_ VPWR VGND _1549_ sg13g2_nand4_1
XFILLER_25_1009 VPWR VGND sg13g2_decap_8
XFILLER_49_351 VPWR VGND sg13g2_decap_8
XFILLER_37_513 VPWR VGND sg13g2_decap_8
XFILLER_25_708 VPWR VGND sg13g2_decap_8
XFILLER_21_914 VPWR VGND sg13g2_decap_8
XFILLER_33_763 VPWR VGND sg13g2_decap_8
XFILLER_20_446 VPWR VGND sg13g2_fill_2
X_3824_ _1268_ VPWR _0149_ VGND _1447_ net655 sg13g2_o21ai_1
X_3755_ net614 sap_3_inst.reg_file.array_serializer_inst.data\[8\]\[0\] _1218_ _0130_
+ VPWR VGND sg13g2_a21o_1
X_2706_ VGND VPWR sap_3_inst.controller.stage\[2\] _1507_ _0286_ sap_3_inst.controller.stage\[3\]
+ sg13g2_a21oi_1
X_3686_ net677 _1137_ _1174_ VPWR VGND sg13g2_nor2_2
X_2637_ net576 VPWR _0226_ VGND _0221_ _0225_ sg13g2_o21ai_1
XFILLER_0_829 VPWR VGND sg13g2_decap_8
X_2568_ _1977_ _1979_ _1976_ _1980_ VPWR VGND sg13g2_nand3_1
X_2499_ _1913_ net639 sap_3_inst.reg_file.array_serializer_inst.data\[6\]\[4\] net641
+ sap_3_inst.reg_file.array_serializer_inst.data\[4\]\[4\] VPWR VGND sg13g2_a22oi_1
X_4238_ sap_3_outputReg_start_sync net28 VPWR VGND sg13g2_buf_1
X_4169_ net821 VGND VPWR _0133_ sap_3_inst.reg_file.array_serializer_inst.data\[8\]\[3\]
+ clknet_5_7__leaf_sap_3_inst.alu.clk_regs sg13g2_dfrbpq_2
XFILLER_28_546 VPWR VGND sg13g2_decap_8
XFILLER_12_903 VPWR VGND sg13g2_decap_8
XFILLER_24_741 VPWR VGND sg13g2_decap_8
XFILLER_8_929 VPWR VGND sg13g2_decap_8
Xclkbuf_4_12_0_sap_3_inst.alu.clk_regs clknet_0_sap_3_inst.alu.clk_regs clknet_4_12_0_sap_3_inst.alu.clk_regs
+ VPWR VGND sg13g2_buf_8
XFILLER_3_645 VPWR VGND sg13g2_decap_8
XFILLER_47_844 VPWR VGND sg13g2_decap_8
XFILLER_0_14 VPWR VGND sg13g2_fill_2
XFILLER_19_535 VPWR VGND sg13g2_decap_8
XFILLER_46_387 VPWR VGND sg13g2_decap_8
XFILLER_34_549 VPWR VGND sg13g2_decap_8
XFILLER_9_12 VPWR VGND sg13g2_fill_2
XFILLER_15_763 VPWR VGND sg13g2_decap_8
XFILLER_30_744 VPWR VGND sg13g2_decap_8
X_3540_ VGND VPWR _1453_ net584 _0077_ _1056_ sg13g2_a21oi_1
X_3471_ _0994_ _0955_ _0977_ VPWR VGND sg13g2_xnor2_1
X_2422_ _1530_ VPWR _1842_ VGND _1517_ net729 sg13g2_o21ai_1
X_2353_ _1773_ _1772_ _1637_ _1767_ _1625_ VPWR VGND sg13g2_a22oi_1
X_2284_ _1575_ _1639_ _1704_ VPWR VGND sg13g2_nor2_1
X_4023_ _1440_ _1285_ _1429_ VPWR VGND sg13g2_nor2_2
XFILLER_38_800 VPWR VGND sg13g2_decap_8
XFILLER_25_505 VPWR VGND sg13g2_decap_8
XFILLER_38_877 VPWR VGND sg13g2_decap_8
XFILLER_21_711 VPWR VGND sg13g2_decap_8
XFILLER_33_560 VPWR VGND sg13g2_decap_8
XFILLER_20_210 VPWR VGND sg13g2_fill_2
X_3807_ net612 _1066_ _1132_ _1257_ VPWR VGND sg13g2_nor3_1
XFILLER_21_788 VPWR VGND sg13g2_decap_8
X_3738_ net593 sap_3_inst.reg_file.array_serializer_inst.data\[7\]\[0\] _1209_ _0122_
+ VPWR VGND sg13g2_a21o_1
X_3669_ net623 _1158_ _1159_ _1160_ VPWR VGND sg13g2_or3_1
XFILLER_0_626 VPWR VGND sg13g2_decap_8
Xclkbuf_4_4_0_sap_3_inst.alu.clk_regs clknet_0_sap_3_inst.alu.clk_regs clknet_4_4_0_sap_3_inst.alu.clk_regs
+ VPWR VGND sg13g2_buf_8
XFILLER_48_619 VPWR VGND sg13g2_decap_8
XFILLER_29_811 VPWR VGND sg13g2_decap_8
XFILLER_28_332 VPWR VGND sg13g2_fill_1
XFILLER_29_888 VPWR VGND sg13g2_decap_8
XFILLER_16_549 VPWR VGND sg13g2_decap_8
XFILLER_44_869 VPWR VGND sg13g2_decap_8
XFILLER_12_700 VPWR VGND sg13g2_decap_8
XFILLER_15_1008 VPWR VGND sg13g2_decap_8
XFILLER_8_726 VPWR VGND sg13g2_decap_8
XFILLER_7_203 VPWR VGND sg13g2_fill_1
XFILLER_12_777 VPWR VGND sg13g2_decap_8
XFILLER_4_921 VPWR VGND sg13g2_decap_8
XFILLER_4_998 VPWR VGND sg13g2_decap_8
XFILLER_22_8 VPWR VGND sg13g2_fill_2
XFILLER_47_641 VPWR VGND sg13g2_decap_8
XFILLER_35_836 VPWR VGND sg13g2_decap_8
X_2971_ VGND VPWR _0526_ _0525_ _0489_ sg13g2_or2_1
XFILLER_15_560 VPWR VGND sg13g2_decap_8
XFILLER_30_541 VPWR VGND sg13g2_decap_8
X_3523_ _0073_ _1039_ _1043_ net586 _1494_ VPWR VGND sg13g2_a22oi_1
X_3454_ _0977_ _0973_ _0976_ net670 _1480_ VPWR VGND sg13g2_a22oi_1
XFILLER_41_0 VPWR VGND sg13g2_fill_1
X_2405_ _1825_ _1685_ _1602_ _1646_ _1597_ VPWR VGND sg13g2_a22oi_1
X_3385_ _0911_ _0775_ _0897_ VPWR VGND sg13g2_xnor2_1
X_2336_ _1743_ _1745_ _1750_ _1755_ _1756_ VPWR VGND sg13g2_or4_1
X_2267_ VGND VPWR _1536_ net746 _1687_ net735 sg13g2_a21oi_1
X_4006_ _1437_ u_ser.state\[0\] _1415_ VPWR VGND sg13g2_nor2_2
XFILLER_26_814 VPWR VGND sg13g2_decap_8
XFILLER_38_674 VPWR VGND sg13g2_decap_8
X_2198_ net780 net785 net782 _1618_ VGND VPWR _1563_ sg13g2_nor4_2
XFILLER_13_508 VPWR VGND sg13g2_decap_8
XFILLER_25_379 VPWR VGND sg13g2_decap_8
XFILLER_21_585 VPWR VGND sg13g2_decap_8
XFILLER_5_707 VPWR VGND sg13g2_decap_8
XFILLER_1_913 VPWR VGND sg13g2_decap_8
XFILLER_0_423 VPWR VGND sg13g2_fill_2
XFILLER_49_939 VPWR VGND sg13g2_decap_8
XFILLER_48_416 VPWR VGND sg13g2_decap_8
Xhold20 u_ser.shadow_reg\[0\] VPWR VGND net69 sg13g2_dlygate4sd3_1
XFILLER_29_53 VPWR VGND sg13g2_fill_1
XFILLER_21_1012 VPWR VGND sg13g2_decap_8
XFILLER_29_685 VPWR VGND sg13g2_decap_8
XFILLER_44_666 VPWR VGND sg13g2_decap_8
XFILLER_17_858 VPWR VGND sg13g2_decap_8
XFILLER_32_839 VPWR VGND sg13g2_decap_8
XFILLER_8_523 VPWR VGND sg13g2_decap_8
XFILLER_12_574 VPWR VGND sg13g2_decap_8
XFILLER_4_795 VPWR VGND sg13g2_decap_8
XFILLER_3_294 VPWR VGND sg13g2_fill_2
XFILLER_6_1006 VPWR VGND sg13g2_decap_8
X_3170_ _0698_ net706 _0694_ VPWR VGND sg13g2_nand2_1
XFILLER_0_990 VPWR VGND sg13g2_decap_8
X_2121_ _1523_ _1525_ net765 _1541_ VPWR VGND _1540_ sg13g2_nand4_1
X_2052_ _1474_ sap_3_inst.reg_file.array_serializer_inst.data\[0\]\[4\] VPWR VGND
+ sg13g2_inv_2
XFILLER_48_983 VPWR VGND sg13g2_decap_8
XFILLER_35_633 VPWR VGND sg13g2_decap_8
XFILLER_23_806 VPWR VGND sg13g2_decap_8
X_2954_ net791 sap_3_inst.alu.tmp\[6\] _0509_ VPWR VGND sg13g2_and2_1
XFILLER_31_850 VPWR VGND sg13g2_decap_8
X_2885_ VPWR VGND _0442_ net580 _0441_ net572 _0443_ net627 sg13g2_a221oi_1
X_3506_ _1027_ _1022_ _1026_ net672 _1494_ VPWR VGND sg13g2_a22oi_1
X_3437_ _0907_ _0931_ _0885_ _0961_ VPWR VGND _0954_ sg13g2_nand4_1
XFILLER_44_1023 VPWR VGND sg13g2_decap_4
X_3368_ net586 _0887_ _0892_ _0894_ _0895_ VPWR VGND sg13g2_nor4_1
X_2319_ _1739_ _1738_ VPWR VGND sg13g2_inv_2
X_3299_ _0822_ _0824_ _0816_ _0827_ VPWR VGND _0825_ sg13g2_nand4_1
XFILLER_39_950 VPWR VGND sg13g2_decap_8
XFILLER_26_611 VPWR VGND sg13g2_decap_8
XFILLER_14_828 VPWR VGND sg13g2_decap_8
XFILLER_26_688 VPWR VGND sg13g2_decap_8
XFILLER_41_658 VPWR VGND sg13g2_decap_8
XFILLER_40_157 VPWR VGND sg13g2_fill_1
XFILLER_21_382 VPWR VGND sg13g2_fill_1
XFILLER_5_504 VPWR VGND sg13g2_decap_8
Xoutput21 net32 uio_out[4] VPWR VGND sg13g2_buf_1
XFILLER_1_710 VPWR VGND sg13g2_decap_8
Xoutput10 net10 uio_oe[1] VPWR VGND sg13g2_buf_1
XFILLER_1_787 VPWR VGND sg13g2_decap_8
Xclkbuf_5_6__f_sap_3_inst.alu.clk_regs clknet_4_3_0_sap_3_inst.alu.clk_regs clknet_5_6__leaf_sap_3_inst.alu.clk_regs
+ VPWR VGND sg13g2_buf_8
XFILLER_49_736 VPWR VGND sg13g2_decap_8
XFILLER_29_482 VPWR VGND sg13g2_decap_8
XFILLER_45_942 VPWR VGND sg13g2_decap_8
XFILLER_17_655 VPWR VGND sg13g2_decap_8
XFILLER_44_463 VPWR VGND sg13g2_decap_8
XFILLER_32_636 VPWR VGND sg13g2_decap_8
XFILLER_13_872 VPWR VGND sg13g2_decap_8
XFILLER_9_854 VPWR VGND sg13g2_decap_8
X_2670_ _1959_ _0254_ _1950_ _0256_ VPWR VGND _0255_ sg13g2_nand4_1
XFILLER_4_592 VPWR VGND sg13g2_decap_8
X_3222_ net704 net698 sap_3_inst.reg_file.array_serializer_inst.data\[6\]\[4\] _0750_
+ VPWR VGND net691 sg13g2_nand4_1
X_3153_ net730 net734 net753 _0681_ VPWR VGND sg13g2_a21o_1
X_2104_ VGND VPWR _1524_ net770 net769 sg13g2_or2_1
XFILLER_48_780 VPWR VGND sg13g2_decap_8
X_3084_ _1549_ net735 net773 _0612_ VPWR VGND sg13g2_nand3_1
XFILLER_36_920 VPWR VGND sg13g2_decap_8
XFILLER_47_290 VPWR VGND sg13g2_fill_2
X_2035_ VPWR _1457_ sap_3_inst.reg_file.array_serializer_inst.data\[1\]\[2\] VGND
+ sg13g2_inv_1
XFILLER_35_441 VPWR VGND sg13g2_fill_1
XFILLER_23_603 VPWR VGND sg13g2_decap_8
XFILLER_36_997 VPWR VGND sg13g2_decap_8
X_3986_ _1445_ net709 _1400_ VPWR VGND sg13g2_nor2_1
X_2937_ net793 _0324_ _0493_ VPWR VGND sg13g2_nor2_1
XFILLER_11_1000 VPWR VGND sg13g2_decap_8
X_2868_ VPWR _0426_ _0425_ VGND sg13g2_inv_1
X_2799_ _0359_ _0356_ _0358_ VPWR VGND sg13g2_xnor2_1
XFILLER_2_518 VPWR VGND sg13g2_decap_8
Xfanout800 sap_3_inst.alu.acc\[3\] net800 VPWR VGND sg13g2_buf_8
Xclkbuf_5_13__f_sap_3_inst.alu.clk_regs clknet_4_6_0_sap_3_inst.alu.clk_regs clknet_5_13__leaf_sap_3_inst.alu.clk_regs
+ VPWR VGND sg13g2_buf_8
Xfanout833 net835 net833 VPWR VGND sg13g2_buf_8
Xfanout822 rst_n net822 VPWR VGND sg13g2_buf_8
Xfanout811 net812 net811 VPWR VGND sg13g2_buf_8
Xfanout844 net845 net844 VPWR VGND sg13g2_buf_8
XFILLER_27_931 VPWR VGND sg13g2_decap_8
XFILLER_42_912 VPWR VGND sg13g2_decap_8
XFILLER_14_625 VPWR VGND sg13g2_decap_8
XFILLER_26_485 VPWR VGND sg13g2_decap_8
XFILLER_42_989 VPWR VGND sg13g2_decap_8
XFILLER_41_455 VPWR VGND sg13g2_decap_8
XFILLER_13_157 VPWR VGND sg13g2_fill_1
XFILLER_6_824 VPWR VGND sg13g2_decap_8
XFILLER_10_886 VPWR VGND sg13g2_decap_8
XFILLER_49_533 VPWR VGND sg13g2_decap_8
XFILLER_1_584 VPWR VGND sg13g2_decap_8
XFILLER_3_1009 VPWR VGND sg13g2_decap_8
XFILLER_18_931 VPWR VGND sg13g2_decap_8
XFILLER_36_249 VPWR VGND sg13g2_fill_1
XFILLER_33_945 VPWR VGND sg13g2_decap_8
X_3840_ sap_3_inst.reg_file.array_serializer_inst.bit_pos\[1\] net817 _1279_ VPWR
+ VGND sg13g2_and2_1
X_3771_ _1232_ _0908_ _0931_ VPWR VGND sg13g2_xnor2_1
XFILLER_34_1011 VPWR VGND sg13g2_decap_8
X_2722_ net752 net750 _1634_ _0293_ VPWR VGND sg13g2_nor3_1
XFILLER_9_651 VPWR VGND sg13g2_decap_8
X_2653_ VGND VPWR _0240_ net628 net806 sg13g2_or2_1
X_2584_ _1993_ _1989_ _1986_ _1994_ VPWR VGND sg13g2_a21o_2
X_3205_ _0724_ _0727_ _0729_ _0731_ _0733_ VPWR VGND sg13g2_or4_1
XFILLER_41_1015 VPWR VGND sg13g2_decap_8
X_4185_ net821 VGND VPWR _0149_ sap_3_inst.reg_file.array_serializer_inst.data\[10\]\[3\]
+ clknet_5_7__leaf_sap_3_inst.alu.clk_regs sg13g2_dfrbpq_2
XFILLER_28_728 VPWR VGND sg13g2_decap_8
X_3136_ _0664_ net705 _0662_ VPWR VGND sg13g2_nand2_2
X_3067_ _0600_ net776 net739 VPWR VGND sg13g2_nand2_1
X_2018_ VPWR _1440_ net77 VGND sg13g2_inv_1
XFILLER_23_400 VPWR VGND sg13g2_decap_8
XFILLER_24_923 VPWR VGND sg13g2_decap_8
XFILLER_36_794 VPWR VGND sg13g2_decap_8
XFILLER_23_477 VPWR VGND sg13g2_decap_8
X_3969_ _1387_ net658 _1197_ VPWR VGND sg13g2_nand2_1
XFILLER_12_45 VPWR VGND sg13g2_fill_2
XFILLER_3_827 VPWR VGND sg13g2_decap_8
Xfanout630 _1812_ net630 VPWR VGND sg13g2_buf_8
Xfanout641 _1806_ net641 VPWR VGND sg13g2_buf_8
Xfanout685 _0867_ net685 VPWR VGND sg13g2_buf_8
Xfanout652 _0821_ net652 VPWR VGND sg13g2_buf_1
Xfanout663 _0699_ net663 VPWR VGND sg13g2_buf_8
Xfanout674 _0689_ net674 VPWR VGND sg13g2_buf_8
Xfanout696 _0657_ net696 VPWR VGND sg13g2_buf_2
XFILLER_19_717 VPWR VGND sg13g2_decap_8
XFILLER_46_569 VPWR VGND sg13g2_decap_8
XFILLER_15_945 VPWR VGND sg13g2_decap_8
XFILLER_42_786 VPWR VGND sg13g2_decap_8
XFILLER_14_499 VPWR VGND sg13g2_decap_8
XFILLER_30_926 VPWR VGND sg13g2_decap_8
XFILLER_6_621 VPWR VGND sg13g2_decap_8
XFILLER_10_683 VPWR VGND sg13g2_decap_8
XFILLER_6_698 VPWR VGND sg13g2_decap_8
XFILLER_2_882 VPWR VGND sg13g2_decap_8
XFILLER_49_330 VPWR VGND sg13g2_decap_8
XFILLER_37_569 VPWR VGND sg13g2_decap_8
XFILLER_33_742 VPWR VGND sg13g2_decap_8
X_3823_ _1267_ VPWR _1268_ VGND _1233_ _1266_ sg13g2_o21ai_1
XFILLER_20_458 VPWR VGND sg13g2_fill_1
X_3754_ VPWR VGND _1217_ net612 _1215_ net603 _1218_ _0847_ sg13g2_a221oi_1
X_3685_ _0105_ _1172_ _1173_ net624 _1498_ VPWR VGND sg13g2_a22oi_1
X_2705_ _0284_ _0285_ _0003_ VPWR VGND sg13g2_nor2_1
X_2636_ _0223_ _0224_ _0222_ _0225_ VPWR VGND sg13g2_nand3_1
XFILLER_0_808 VPWR VGND sg13g2_decap_8
X_2567_ _1805_ _1974_ _1975_ _1978_ _1979_ VPWR VGND sg13g2_and4_1
X_2498_ _1912_ net635 sap_3_inst.reg_file.array_serializer_inst.data\[8\]\[4\] net642
+ sap_3_inst.reg_file.array_serializer_inst.data\[11\]\[4\] VPWR VGND sg13g2_a22oi_1
X_4237_ sap_3_outputReg_serial net27 VPWR VGND sg13g2_buf_1
XFILLER_28_525 VPWR VGND sg13g2_decap_8