* NGSPICE file created from heichips25_sap3.ext - technology: ihp-sg13g2

* Black-box entry subcircuit for sg13g2_a21oi_1 abstract view
.subckt sg13g2_a21oi_1 VSS VDD A1 A2 Y B1
.ends

* Black-box entry subcircuit for sg13g2_decap_8 abstract view
.subckt sg13g2_decap_8 VDD VSS
.ends

* Black-box entry subcircuit for sg13g2_nor2_1 abstract view
.subckt sg13g2_nor2_1 A B Y VDD VSS
.ends

* Black-box entry subcircuit for sg13g2_inv_1 abstract view
.subckt sg13g2_inv_1 VDD Y A VSS
.ends

* Black-box entry subcircuit for sg13g2_nand2_1 abstract view
.subckt sg13g2_nand2_1 Y A B VDD VSS
.ends

* Black-box entry subcircuit for sg13g2_buf_8 abstract view
.subckt sg13g2_buf_8 A X VDD VSS
.ends

* Black-box entry subcircuit for sg13g2_fill_2 abstract view
.subckt sg13g2_fill_2 VDD VSS
.ends

* Black-box entry subcircuit for sg13g2_fill_1 abstract view
.subckt sg13g2_fill_1 VDD VSS
.ends

* Black-box entry subcircuit for sg13g2_o21ai_1 abstract view
.subckt sg13g2_o21ai_1 B1 VDD Y VSS A1 A2
.ends

* Black-box entry subcircuit for sg13g2_a22oi_1 abstract view
.subckt sg13g2_a22oi_1 Y B1 B2 A2 A1 VDD VSS
.ends

* Black-box entry subcircuit for sg13g2_a221oi_1 abstract view
.subckt sg13g2_a221oi_1 VDD VSS B2 C1 B1 A1 Y A2
.ends

* Black-box entry subcircuit for sg13g2_dfrbpq_1 abstract view
.subckt sg13g2_dfrbpq_1 RESET_B VSS VDD D Q CLK
.ends

* Black-box entry subcircuit for sg13g2_dfrbpq_2 abstract view
.subckt sg13g2_dfrbpq_2 RESET_B VSS VDD D Q CLK
.ends

* Black-box entry subcircuit for sg13g2_buf_1 abstract view
.subckt sg13g2_buf_1 A X VDD VSS
.ends

* Black-box entry subcircuit for sg13g2_buf_2 abstract view
.subckt sg13g2_buf_2 A X VDD VSS
.ends

* Black-box entry subcircuit for sg13g2_nand4_1 abstract view
.subckt sg13g2_nand4_1 B C A Y VDD VSS D
.ends

* Black-box entry subcircuit for sg13g2_a21o_1 abstract view
.subckt sg13g2_a21o_1 A2 A1 B1 X VDD VSS
.ends

* Black-box entry subcircuit for sg13g2_mux2_1 abstract view
.subckt sg13g2_mux2_1 A0 A1 S X VDD VSS
.ends

* Black-box entry subcircuit for sg13g2_nand3_1 abstract view
.subckt sg13g2_nand3_1 B C A Y VDD VSS
.ends

* Black-box entry subcircuit for sg13g2_a21oi_2 abstract view
.subckt sg13g2_a21oi_2 VSS VDD B1 Y A2 A1
.ends

* Black-box entry subcircuit for sg13g2_nor2_2 abstract view
.subckt sg13g2_nor2_2 A B Y VDD VSS
.ends

* Black-box entry subcircuit for sg13g2_nor4_1 abstract view
.subckt sg13g2_nor4_1 A B C D Y VDD VSS
.ends

* Black-box entry subcircuit for sg13g2_tielo abstract view
.subckt sg13g2_tielo VDD VSS L_LO
.ends

* Black-box entry subcircuit for sg13g2_nor3_1 abstract view
.subckt sg13g2_nor3_1 A B C Y VDD VSS
.ends

* Black-box entry subcircuit for sg13g2_nand2_2 abstract view
.subckt sg13g2_nand2_2 Y A B VDD VSS
.ends

* Black-box entry subcircuit for sg13g2_dlygate4sd3_1 abstract view
.subckt sg13g2_dlygate4sd3_1 A VDD VSS X
.ends

* Black-box entry subcircuit for sg13g2_and2_1 abstract view
.subckt sg13g2_and2_1 A B X VDD VSS
.ends

* Black-box entry subcircuit for sg13g2_xnor2_1 abstract view
.subckt sg13g2_xnor2_1 Y A B VDD VSS
.ends

* Black-box entry subcircuit for sg13g2_nand2b_2 abstract view
.subckt sg13g2_nand2b_2 Y B VDD VSS A_N
.ends

* Black-box entry subcircuit for sg13g2_nand2b_1 abstract view
.subckt sg13g2_nand2b_1 Y B A_N VDD VSS
.ends

* Black-box entry subcircuit for sg13g2_nand3b_1 abstract view
.subckt sg13g2_nand3b_1 B C Y VDD VSS A_N
.ends

* Black-box entry subcircuit for sg13g2_nor3_2 abstract view
.subckt sg13g2_nor3_2 A B C Y VDD VSS
.ends

* Black-box entry subcircuit for sg13g2_decap_4 abstract view
.subckt sg13g2_decap_4 VDD VSS
.ends

* Black-box entry subcircuit for sg13g2_inv_2 abstract view
.subckt sg13g2_inv_2 Y A VDD VSS
.ends

* Black-box entry subcircuit for sg13g2_or2_1 abstract view
.subckt sg13g2_or2_1 VSS VDD X B A
.ends

* Black-box entry subcircuit for sg13g2_inv_4 abstract view
.subckt sg13g2_inv_4 A Y VDD VSS
.ends

* Black-box entry subcircuit for sg13g2_and3_1 abstract view
.subckt sg13g2_and3_1 X A B C VDD VSS
.ends

* Black-box entry subcircuit for sg13g2_and4_1 abstract view
.subckt sg13g2_and4_1 A B C D X VDD VSS
.ends

* Black-box entry subcircuit for sg13g2_xor2_1 abstract view
.subckt sg13g2_xor2_1 B A X VDD VSS
.ends

* Black-box entry subcircuit for sg13g2_nor2b_1 abstract view
.subckt sg13g2_nor2b_1 A B_N Y VDD VSS
.ends

* Black-box entry subcircuit for sg13g2_lgcp_1 abstract view
.subckt sg13g2_lgcp_1 GATE CLK GCLK VDD VSS
.ends

* Black-box entry subcircuit for sg13g2_nor2b_2 abstract view
.subckt sg13g2_nor2b_2 A B_N Y VDD VSS
.ends

* Black-box entry subcircuit for sg13g2_or3_1 abstract view
.subckt sg13g2_or3_1 A B C X VDD VSS
.ends

* Black-box entry subcircuit for sg13g2_nor4_2 abstract view
.subckt sg13g2_nor4_2 A B C Y VSS VDD D
.ends

* Black-box entry subcircuit for sg13g2_and3_2 abstract view
.subckt sg13g2_and3_2 X A B C VDD VSS
.ends

* Black-box entry subcircuit for sg13g2_or4_1 abstract view
.subckt sg13g2_or4_1 A B C D X VDD VSS
.ends

* Black-box entry subcircuit for sg13g2_a21o_2 abstract view
.subckt sg13g2_a21o_2 A2 A1 B1 X VDD VSS
.ends

* Black-box entry subcircuit for sg13g2_mux4_1 abstract view
.subckt sg13g2_mux4_1 S0 A0 A1 A2 A3 S1 X VDD VSS
.ends

.subckt heichips25_sap3 VGND VPWR clk ena rst_n ui_in[0] ui_in[1] ui_in[2] ui_in[3]
+ ui_in[4] ui_in[5] ui_in[6] ui_in[7] uio_in[0] uio_in[1] uio_in[2] uio_in[3] uio_in[4]
+ uio_in[5] uio_in[6] uio_in[7] uio_oe[0] uio_oe[1] uio_oe[2] uio_oe[3] uio_oe[4]
+ uio_oe[5] uio_oe[6] uio_oe[7] uio_out[0] uio_out[1] uio_out[2] uio_out[3] uio_out[4]
+ uio_out[5] uio_out[6] uio_out[7] uo_out[0] uo_out[1] uo_out[2] uo_out[3] uo_out[4]
+ uo_out[5] uo_out[6] uo_out[7]
X_3155_ VGND VPWR net718 _1941_ _0064_ _0627_ sg13g2_a21oi_1
XFILLER_28_918 VPWR VGND sg13g2_decap_8
X_3086_ net772 _0334_ _0583_ VPWR VGND sg13g2_nor2_1
X_2106_ VPWR _1524_ sap_3_inst.reg_file_inst.array_serializer_inst.data\[1\]\[0\]
+ VGND sg13g2_inv_1
XFILLER_36_995 VPWR VGND sg13g2_decap_8
XFILLER_23_634 VPWR VGND sg13g2_decap_8
XFILLER_35_1009 VPWR VGND sg13g2_decap_8
X_3988_ _1364_ net48 net798 VPWR VGND sg13g2_nand2_1
X_2939_ VPWR _0440_ _0439_ VGND sg13g2_inv_1
XFILLER_11_1020 VPWR VGND sg13g2_decap_8
XFILLER_2_505 VPWR VGND sg13g2_decap_8
Xfanout820 net826 net820 VPWR VGND sg13g2_buf_8
Xfanout831 net832 net831 VPWR VGND sg13g2_buf_8
XFILLER_46_748 VPWR VGND sg13g2_decap_8
XFILLER_27_973 VPWR VGND sg13g2_decap_8
XFILLER_42_954 VPWR VGND sg13g2_decap_8
XFILLER_41_453 VPWR VGND sg13g2_decap_8
XFILLER_14_667 VPWR VGND sg13g2_decap_8
XFILLER_9_126 VPWR VGND sg13g2_fill_2
XFILLER_9_159 VPWR VGND sg13g2_fill_1
XFILLER_6_855 VPWR VGND sg13g2_decap_8
XFILLER_10_884 VPWR VGND sg13g2_decap_8
XFILLER_3_56 VPWR VGND sg13g2_fill_2
XFILLER_49_531 VPWR VGND sg13g2_decap_8
XFILLER_3_67 VPWR VGND sg13g2_fill_1
XFILLER_37_726 VPWR VGND sg13g2_decap_8
XFILLER_24_409 VPWR VGND sg13g2_decap_8
XFILLER_45_792 VPWR VGND sg13g2_decap_8
XFILLER_18_984 VPWR VGND sg13g2_decap_8
XFILLER_33_932 VPWR VGND sg13g2_decap_8
X_3911_ net593 VPWR _1298_ VGND net647 _0969_ sg13g2_o21ai_1
X_3842_ _1243_ VPWR _0130_ VGND _1244_ _1248_ sg13g2_o21ai_1
XFILLER_20_637 VPWR VGND sg13g2_decap_8
XFILLER_32_497 VPWR VGND sg13g2_decap_8
X_3773_ sap_3_inst.reg_file_inst.array_serializer_inst.data\[4\]\[7\] net675 _1205_
+ VPWR VGND sg13g2_nor2_1
X_2724_ VGND VPWR net1 _1884_ _0254_ _0253_ sg13g2_a21oi_1
X_2655_ _2062_ _1864_ sap_3_inst.reg_file_inst.array_serializer_inst.data\[8\]\[3\]
+ net625 sap_3_inst.reg_file_inst.array_serializer_inst.data\[4\]\[3\] VPWR VGND sg13g2_a22oi_1
X_2586_ VPWR VGND _1496_ _1994_ _1894_ _1595_ _1995_ net722 sg13g2_a221oi_1
X_4325_ net823 VGND VPWR _0182_ sap_3_inst.alu_inst.act\[5\] clknet_5_19__leaf_sap_3_inst.alu_inst.clk_regs
+ sg13g2_dfrbpq_1
X_4256_ net809 VGND VPWR _0113_ sap_3_inst.reg_file_inst.array_serializer_inst.data\[5\]\[7\]
+ clknet_5_2__leaf_sap_3_inst.alu_inst.clk_regs sg13g2_dfrbpq_2
XFILLER_41_1013 VPWR VGND sg13g2_decap_8
X_3207_ _0678_ _0677_ _0672_ _0676_ _1670_ VPWR VGND sg13g2_a22oi_1
X_4187_ net821 VGND VPWR _0044_ sap_3_inst.out\[3\] clknet_5_20__leaf_sap_3_inst.alu_inst.clk_regs
+ sg13g2_dfrbpq_1
XFILLER_28_715 VPWR VGND sg13g2_decap_8
X_3138_ _0619_ VPWR _0055_ VGND _1967_ net701 sg13g2_o21ai_1
X_3069_ VPWR _0039_ _0566_ VGND sg13g2_inv_1
XFILLER_23_431 VPWR VGND sg13g2_decap_8
XFILLER_36_792 VPWR VGND sg13g2_decap_8
XFILLER_24_976 VPWR VGND sg13g2_decap_8
XFILLER_3_847 VPWR VGND sg13g2_decap_8
Xfanout650 net651 net650 VPWR VGND sg13g2_buf_1
Xfanout694 _0330_ net694 VPWR VGND sg13g2_buf_2
Xclkbuf_5_21__f_sap_3_inst.alu_inst.clk_regs clknet_4_10_0_sap_3_inst.alu_inst.clk_regs
+ clknet_5_21__leaf_sap_3_inst.alu_inst.clk_regs VPWR VGND sg13g2_buf_8
Xfanout672 net673 net672 VPWR VGND sg13g2_buf_8
Xfanout683 net685 net683 VPWR VGND sg13g2_buf_8
Xfanout661 net662 net661 VPWR VGND sg13g2_buf_8
XFILLER_46_545 VPWR VGND sg13g2_decap_8
XFILLER_37_73 VPWR VGND sg13g2_fill_2
XFILLER_15_910 VPWR VGND sg13g2_decap_8
XFILLER_27_770 VPWR VGND sg13g2_decap_8
XFILLER_42_751 VPWR VGND sg13g2_decap_8
XFILLER_15_987 VPWR VGND sg13g2_decap_8
XFILLER_18_1026 VPWR VGND sg13g2_fill_2
XFILLER_30_924 VPWR VGND sg13g2_decap_8
XFILLER_10_681 VPWR VGND sg13g2_decap_8
XFILLER_6_652 VPWR VGND sg13g2_decap_8
X_2440_ VPWR _1857_ net621 VGND sg13g2_inv_1
XFILLER_5_195 VPWR VGND sg13g2_fill_1
X_2371_ _1783_ _1784_ _1774_ _1788_ VPWR VGND _1787_ sg13g2_nand4_1
Xclkbuf_5_10__f_sap_3_inst.alu_inst.clk_regs clknet_4_5_0_sap_3_inst.alu_inst.clk_regs
+ clknet_5_10__leaf_sap_3_inst.alu_inst.clk_regs VPWR VGND sg13g2_buf_8
X_4110_ _1463_ _0578_ net698 VPWR VGND sg13g2_nand2_1
X_4041_ _1313_ net51 _1411_ _0166_ VPWR VGND sg13g2_a21o_1
XFILLER_37_523 VPWR VGND sg13g2_decap_8
XFILLER_18_781 VPWR VGND sg13g2_decap_8
XFILLER_17_280 VPWR VGND sg13g2_fill_1
XFILLER_21_902 VPWR VGND sg13g2_decap_8
XFILLER_20_434 VPWR VGND sg13g2_fill_1
XFILLER_21_979 VPWR VGND sg13g2_decap_8
X_3825_ _1216_ sap_3_inst.reg_file_inst.array_serializer_inst.data\[7\]\[3\] net635
+ _0125_ VPWR VGND sg13g2_mux2_1
X_3756_ VGND VPWR _1188_ _1190_ _1191_ net656 sg13g2_a21oi_1
X_2707_ _0237_ VPWR _0026_ VGND _2057_ _0236_ sg13g2_o21ai_1
X_3687_ net15 _1097_ _1136_ VPWR VGND sg13g2_nor2_1
X_2638_ net696 net627 sap_3_inst.reg_file_inst.array_serializer_inst.data\[6\]\[1\]
+ _2047_ VPWR VGND sg13g2_nand3_1
X_2569_ _1980_ _1509_ _1900_ VPWR VGND sg13g2_nand2_1
X_4308_ net835 VGND VPWR _0165_ sap_3_inst.reg_file_inst.array_serializer_inst.shadow_reg\[4\]
+ clknet_3_7__leaf_clk sg13g2_dfrbpq_1
X_4239_ net814 VGND VPWR _0096_ sap_3_inst.reg_file_inst.array_serializer_inst.data\[3\]\[6\]
+ clknet_5_13__leaf_sap_3_inst.alu_inst.clk_regs sg13g2_dfrbpq_2
XFILLER_28_512 VPWR VGND sg13g2_decap_8
XFILLER_28_589 VPWR VGND sg13g2_decap_8
XFILLER_23_250 VPWR VGND sg13g2_fill_1
XFILLER_24_773 VPWR VGND sg13g2_decap_8
XFILLER_8_906 VPWR VGND sg13g2_decap_8
XFILLER_12_968 VPWR VGND sg13g2_decap_8
XFILLER_3_644 VPWR VGND sg13g2_decap_8
XFILLER_47_865 VPWR VGND sg13g2_decap_8
XFILLER_46_342 VPWR VGND sg13g2_decap_8
XFILLER_0_35 VPWR VGND sg13g2_decap_8
XFILLER_19_567 VPWR VGND sg13g2_decap_8
XFILLER_15_784 VPWR VGND sg13g2_decap_8
XFILLER_30_721 VPWR VGND sg13g2_decap_8
XFILLER_9_88 VPWR VGND sg13g2_decap_8
XFILLER_9_55 VPWR VGND sg13g2_fill_2
XFILLER_9_99 VPWR VGND sg13g2_fill_1
XFILLER_30_798 VPWR VGND sg13g2_decap_8
X_3610_ VGND VPWR _1069_ _1070_ _0957_ _0861_ sg13g2_a21oi_2
X_3541_ net586 _1006_ _1007_ VPWR VGND sg13g2_nor2_2
XFILLER_7_961 VPWR VGND sg13g2_decap_8
X_3472_ _0939_ VPWR _0940_ VGND sap_3_inst.reg_file_inst.array_serializer_inst.data\[0\]\[3\]
+ net662 sg13g2_o21ai_1
XFILLER_43_2 VPWR VGND sg13g2_fill_1
X_2423_ net713 _1833_ _1836_ _1839_ _1840_ VPWR VGND sg13g2_nor4_1
X_2354_ _1759_ _1770_ _1771_ VPWR VGND sg13g2_nor2_1
X_2285_ VGND VPWR _1630_ _1685_ _1702_ net735 sg13g2_a21oi_1
XFILLER_38_832 VPWR VGND sg13g2_decap_8
X_4024_ _1396_ _1349_ sap_3_inst.reg_file_inst.array_serializer_inst.data\[2\]\[4\]
+ _1346_ sap_3_inst.reg_file_inst.array_serializer_inst.data\[9\]\[4\] VPWR VGND sg13g2_a22oi_1
XFILLER_37_320 VPWR VGND sg13g2_fill_2
Xheichips25_sap3_34 VPWR VGND uo_out[7] sg13g2_tielo
XFILLER_25_548 VPWR VGND sg13g2_decap_8
XFILLER_20_242 VPWR VGND sg13g2_fill_2
X_3808_ net657 _1074_ _1227_ VPWR VGND sg13g2_nor2_1
XFILLER_20_275 VPWR VGND sg13g2_fill_1
XFILLER_21_776 VPWR VGND sg13g2_decap_8
X_3739_ VPWR _0099_ _1176_ VGND sg13g2_inv_1
XFILLER_0_658 VPWR VGND sg13g2_decap_8
XFILLER_29_810 VPWR VGND sg13g2_decap_8
XFILLER_44_813 VPWR VGND sg13g2_decap_8
XFILLER_29_887 VPWR VGND sg13g2_decap_8
XFILLER_16_548 VPWR VGND sg13g2_decap_8
XFILLER_24_570 VPWR VGND sg13g2_decap_8
XFILLER_8_703 VPWR VGND sg13g2_decap_8
XFILLER_12_765 VPWR VGND sg13g2_decap_8
XFILLER_7_224 VPWR VGND sg13g2_fill_2
XFILLER_4_942 VPWR VGND sg13g2_decap_8
X_2070_ VPWR _1488_ u_ser.state\[0\] VGND sg13g2_inv_1
XFILLER_47_662 VPWR VGND sg13g2_decap_8
XFILLER_46_150 VPWR VGND sg13g2_fill_1
XFILLER_35_813 VPWR VGND sg13g2_decap_8
X_2972_ _0472_ net704 _0470_ VPWR VGND sg13g2_nand2_1
XFILLER_15_581 VPWR VGND sg13g2_decap_8
XFILLER_22_529 VPWR VGND sg13g2_decap_8
XFILLER_30_595 VPWR VGND sg13g2_decap_8
X_3524_ _0989_ VPWR _0990_ VGND sap_3_inst.reg_file_inst.array_serializer_inst.data\[0\]\[5\]
+ net661 sg13g2_o21ai_1
X_3455_ _0719_ net648 _0924_ VPWR VGND sg13g2_nor2_1
X_2406_ _1823_ net759 _1762_ VPWR VGND sg13g2_nand2_1
X_3386_ _0720_ net659 _0857_ VPWR VGND sg13g2_nor2_2
X_2337_ _1636_ _1642_ net720 _1754_ VPWR VGND sg13g2_nor3_1
X_2268_ _1685_ _1679_ net738 net732 net737 VPWR VGND sg13g2_a22oi_1
XFILLER_26_824 VPWR VGND sg13g2_decap_8
X_4007_ VGND VPWR _1501_ net795 _1381_ _1313_ sg13g2_a21oi_1
X_2199_ _1616_ net767 net770 VPWR VGND sg13g2_nand2_2
XFILLER_37_161 VPWR VGND sg13g2_fill_1
XFILLER_38_1007 VPWR VGND sg13g2_decap_8
XFILLER_41_838 VPWR VGND sg13g2_decap_8
XFILLER_13_529 VPWR VGND sg13g2_decap_8
XFILLER_21_573 VPWR VGND sg13g2_decap_8
XFILLER_1_912 VPWR VGND sg13g2_decap_8
XFILLER_49_916 VPWR VGND sg13g2_decap_8
XFILLER_0_455 VPWR VGND sg13g2_decap_8
Xhold30 sap_3_inst.reg_file_inst.array_serializer_inst.word_index\[0\] VPWR VGND net77
+ sg13g2_dlygate4sd3_1
XFILLER_1_989 VPWR VGND sg13g2_decap_8
XFILLER_48_437 VPWR VGND sg13g2_decap_8
XFILLER_21_1000 VPWR VGND sg13g2_decap_8
XFILLER_44_610 VPWR VGND sg13g2_decap_8
XFILLER_17_835 VPWR VGND sg13g2_decap_8
XFILLER_29_684 VPWR VGND sg13g2_decap_8
XFILLER_32_805 VPWR VGND sg13g2_decap_8
XFILLER_44_687 VPWR VGND sg13g2_decap_8
XFILLER_31_304 VPWR VGND sg13g2_fill_1
XFILLER_8_500 VPWR VGND sg13g2_decap_8
XFILLER_12_562 VPWR VGND sg13g2_decap_8
XFILLER_8_577 VPWR VGND sg13g2_decap_8
X_3240_ _0707_ _0710_ _0711_ VPWR VGND sg13g2_and2_1
X_3171_ VPWR VGND net715 net719 _0632_ net759 _0642_ _1886_ sg13g2_a221oi_1
XFILLER_6_1027 VPWR VGND sg13g2_fill_2
XFILLER_6_1016 VPWR VGND sg13g2_decap_8
X_2122_ VPWR _1540_ sap_3_inst.reg_file_inst.array_serializer_inst.data\[10\]\[6\]
+ VGND sg13g2_inv_1
XFILLER_35_610 VPWR VGND sg13g2_decap_8
XFILLER_23_816 VPWR VGND sg13g2_decap_8
XFILLER_35_687 VPWR VGND sg13g2_decap_8
X_2955_ _0456_ _0453_ _0455_ VPWR VGND sg13g2_xnor2_1
X_2886_ VPWR _0389_ _0388_ VGND sg13g2_inv_1
X_3507_ _0974_ _0862_ _0973_ VPWR VGND sg13g2_nand2_1
X_3438_ _0907_ net677 sap_3_inst.reg_file_inst.array_serializer_inst.data\[4\]\[2\]
+ net688 sap_3_inst.reg_file_inst.array_serializer_inst.data\[7\]\[2\] VPWR VGND sg13g2_a22oi_1
X_3369_ _0840_ sap_3_inst.reg_file_inst.array_serializer_inst.data\[9\]\[1\] net671
+ VPWR VGND sg13g2_nand2_1
XFILLER_45_407 VPWR VGND sg13g2_decap_8
XFILLER_26_621 VPWR VGND sg13g2_decap_8
XFILLER_14_849 VPWR VGND sg13g2_decap_8
XFILLER_26_698 VPWR VGND sg13g2_decap_8
XFILLER_41_635 VPWR VGND sg13g2_decap_8
XFILLER_15_43 VPWR VGND sg13g2_fill_2
XFILLER_22_893 VPWR VGND sg13g2_decap_8
XFILLER_5_569 VPWR VGND sg13g2_decap_8
Xoutput20 net32 uio_out[3] VPWR VGND sg13g2_buf_1
XFILLER_49_713 VPWR VGND sg13g2_decap_8
XFILLER_1_786 VPWR VGND sg13g2_decap_8
XFILLER_37_908 VPWR VGND sg13g2_decap_8
XFILLER_17_632 VPWR VGND sg13g2_decap_8
XFILLER_29_481 VPWR VGND sg13g2_decap_8
XFILLER_45_974 VPWR VGND sg13g2_decap_8
XFILLER_44_484 VPWR VGND sg13g2_decap_8
XFILLER_32_602 VPWR VGND sg13g2_decap_8
XFILLER_20_819 VPWR VGND sg13g2_decap_8
XFILLER_32_679 VPWR VGND sg13g2_decap_8
XFILLER_13_893 VPWR VGND sg13g2_decap_8
X_2740_ _0265_ VPWR _0269_ VGND _2056_ _0268_ sg13g2_o21ai_1
XFILLER_9_886 VPWR VGND sg13g2_decap_8
X_2671_ _0205_ sap_3_inst.alu_flags\[3\] _1902_ VPWR VGND sg13g2_nand2_1
X_4341_ mem_ram_we net25 VPWR VGND sg13g2_buf_1
X_4272_ net811 VGND VPWR _0129_ sap_3_inst.reg_file_inst.array_serializer_inst.data\[7\]\[7\]
+ clknet_5_12__leaf_sap_3_inst.alu_inst.clk_regs sg13g2_dfrbpq_2
X_3223_ _1633_ VPWR _0694_ VGND _0692_ _0693_ sg13g2_o21ai_1
XFILLER_39_201 VPWR VGND sg13g2_fill_1
XFILLER_39_223 VPWR VGND sg13g2_fill_2
X_3154_ net756 net718 _0627_ VPWR VGND sg13g2_nor2_1
X_3085_ _0355_ _0572_ _0582_ VPWR VGND sg13g2_nor2_1
X_2105_ VPWR _1523_ sap_3_inst.reg_file_inst.array_serializer_inst.data\[2\]\[0\]
+ VGND sg13g2_inv_1
XFILLER_36_974 VPWR VGND sg13g2_decap_8
XFILLER_23_613 VPWR VGND sg13g2_decap_8
XFILLER_22_156 VPWR VGND sg13g2_fill_1
X_3987_ _0154_ VPWR _1363_ VGND sap_3_inst.reg_file_inst.array_serializer_inst.data\[0\]\[0\]
+ _1344_ sg13g2_o21ai_1
X_2938_ _0439_ _0438_ VPWR VGND _0437_ sg13g2_nand2b_2
X_2869_ _0372_ net703 sap_3_inst.alu_inst.act\[1\] VPWR VGND sg13g2_nand2b_1
Xfanout810 net812 net810 VPWR VGND sg13g2_buf_8
Xfanout821 net825 net821 VPWR VGND sg13g2_buf_8
Xfanout832 net836 net832 VPWR VGND sg13g2_buf_8
XFILLER_46_727 VPWR VGND sg13g2_decap_8
XFILLER_27_952 VPWR VGND sg13g2_decap_8
Xclkbuf_3_6__f_clk clknet_0_clk clknet_3_6__leaf_clk VPWR VGND sg13g2_buf_8
XFILLER_42_933 VPWR VGND sg13g2_decap_8
XFILLER_14_646 VPWR VGND sg13g2_decap_8
XFILLER_26_495 VPWR VGND sg13g2_decap_8
XFILLER_9_138 VPWR VGND sg13g2_fill_2
XFILLER_10_863 VPWR VGND sg13g2_decap_8
XFILLER_22_690 VPWR VGND sg13g2_decap_8
XFILLER_6_834 VPWR VGND sg13g2_decap_8
XFILLER_49_510 VPWR VGND sg13g2_decap_8
XFILLER_1_583 VPWR VGND sg13g2_decap_8
XFILLER_3_1008 VPWR VGND sg13g2_decap_8
XFILLER_37_705 VPWR VGND sg13g2_decap_8
XFILLER_49_587 VPWR VGND sg13g2_decap_8
XFILLER_18_963 VPWR VGND sg13g2_decap_8
XFILLER_45_771 VPWR VGND sg13g2_decap_8
XFILLER_33_911 VPWR VGND sg13g2_decap_8
X_3910_ net647 VPWR _1297_ VGND net586 _0979_ sg13g2_o21ai_1
XFILLER_20_616 VPWR VGND sg13g2_decap_8
X_3841_ VPWR VGND _0719_ _1055_ _1247_ _1245_ _1248_ _1246_ sg13g2_a221oi_1
XFILLER_33_988 VPWR VGND sg13g2_decap_8
X_3772_ _1198_ VPWR _0104_ VGND _1202_ _1203_ sg13g2_o21ai_1
XFILLER_13_690 VPWR VGND sg13g2_decap_8
X_2723_ VGND VPWR _1899_ _0252_ _0253_ _0251_ sg13g2_a21oi_1
XFILLER_8_171 VPWR VGND sg13g2_fill_1
XFILLER_9_683 VPWR VGND sg13g2_decap_8
X_2654_ _1809_ net626 sap_3_inst.reg_file_inst.array_serializer_inst.data\[1\]\[3\]
+ _2061_ VPWR VGND sg13g2_nand3_1
X_2585_ _1605_ net725 _1994_ VPWR VGND sg13g2_nor2_1
X_4324_ net823 VGND VPWR _0181_ sap_3_inst.alu_inst.act\[4\] clknet_5_21__leaf_sap_3_inst.alu_inst.clk_regs
+ sg13g2_dfrbpq_1
X_4255_ net811 VGND VPWR _0112_ sap_3_inst.reg_file_inst.array_serializer_inst.data\[5\]\[6\]
+ clknet_5_12__leaf_sap_3_inst.alu_inst.clk_regs sg13g2_dfrbpq_2
X_4186_ net821 VGND VPWR _0043_ sap_3_inst.out\[2\] clknet_5_17__leaf_sap_3_inst.alu_inst.clk_regs
+ sg13g2_dfrbpq_1
X_3206_ _1652_ _1666_ _1644_ _0677_ VPWR VGND sg13g2_nand3_1
X_3137_ _0619_ sap_3_inst.alu_inst.tmp\[5\] net700 VPWR VGND sg13g2_nand2_1
XFILLER_27_215 VPWR VGND sg13g2_fill_1
X_3068_ _0566_ _0564_ _0565_ net598 net776 VPWR VGND sg13g2_a22oi_1
XFILLER_36_771 VPWR VGND sg13g2_decap_8
XFILLER_24_955 VPWR VGND sg13g2_decap_8
XFILLER_11_649 VPWR VGND sg13g2_decap_8
XFILLER_23_487 VPWR VGND sg13g2_decap_8
XFILLER_6_119 VPWR VGND sg13g2_fill_1
XFILLER_12_33 VPWR VGND sg13g2_fill_2
XFILLER_3_826 VPWR VGND sg13g2_decap_8
Xfanout651 _0759_ net651 VPWR VGND sg13g2_buf_8
Xfanout640 _0765_ net640 VPWR VGND sg13g2_buf_8
Xfanout684 net685 net684 VPWR VGND sg13g2_buf_8
Xfanout673 net674 net673 VPWR VGND sg13g2_buf_8
Xfanout662 _0713_ net662 VPWR VGND sg13g2_buf_8
XFILLER_46_524 VPWR VGND sg13g2_decap_8
Xfanout695 _1899_ net695 VPWR VGND sg13g2_buf_8
XFILLER_19_749 VPWR VGND sg13g2_decap_8
XFILLER_42_730 VPWR VGND sg13g2_decap_8
XFILLER_15_966 VPWR VGND sg13g2_decap_8
XFILLER_18_1005 VPWR VGND sg13g2_decap_8
XFILLER_30_903 VPWR VGND sg13g2_decap_8
XFILLER_41_284 VPWR VGND sg13g2_fill_1
XFILLER_10_660 VPWR VGND sg13g2_decap_8
XFILLER_6_631 VPWR VGND sg13g2_decap_8
X_2370_ _1704_ _1730_ _1772_ _1786_ _1787_ VPWR VGND sg13g2_nor4_1
XFILLER_1_380 VPWR VGND sg13g2_fill_1
X_4040_ VGND VPWR _1404_ _1409_ _1411_ _1410_ sg13g2_a21oi_1
XFILLER_49_384 VPWR VGND sg13g2_decap_8
XFILLER_37_502 VPWR VGND sg13g2_decap_8
XFILLER_18_760 VPWR VGND sg13g2_decap_8
XFILLER_37_579 VPWR VGND sg13g2_decap_8
XFILLER_33_785 VPWR VGND sg13g2_decap_8
XFILLER_21_958 VPWR VGND sg13g2_decap_8
X_3824_ _0124_ _1236_ _1065_ net635 _1503_ VPWR VGND sg13g2_a22oi_1
X_3755_ _1189_ VPWR _1190_ VGND _1991_ net602 sg13g2_o21ai_1
XFILLER_9_480 VPWR VGND sg13g2_decap_8
X_3686_ _1027_ _1134_ _1135_ VPWR VGND sg13g2_nor2_1
X_2706_ _0237_ sap_3_inst.alu_flags\[2\] _2057_ VPWR VGND sg13g2_nand2_1
X_2637_ _2046_ sap_3_inst.reg_file_inst.array_serializer_inst.data\[3\]\[1\] net623
+ VPWR VGND sg13g2_nand2_1
X_2568_ _1969_ _1978_ _1979_ VPWR VGND _1768_ sg13g2_nand3b_1
X_2499_ net752 _1628_ net721 _1915_ VPWR VGND sg13g2_nor3_2
X_4307_ net834 VGND VPWR _0164_ sap_3_inst.reg_file_inst.array_serializer_inst.shadow_reg\[3\]
+ clknet_3_5__leaf_clk sg13g2_dfrbpq_1
X_4238_ net830 VGND VPWR _0095_ sap_3_inst.reg_file_inst.array_serializer_inst.data\[3\]\[5\]
+ clknet_5_26__leaf_sap_3_inst.alu_inst.clk_regs sg13g2_dfrbpq_2
X_4169_ net807 VGND VPWR _0002_ sap_3_inst.controller_inst.stage\[1\] net41 sg13g2_dfrbpq_2
XFILLER_28_568 VPWR VGND sg13g2_decap_8
XFILLER_43_549 VPWR VGND sg13g2_decap_8
XFILLER_24_752 VPWR VGND sg13g2_decap_8
XFILLER_12_947 VPWR VGND sg13g2_decap_8
XFILLER_23_295 VPWR VGND sg13g2_decap_4
XFILLER_20_980 VPWR VGND sg13g2_decap_8
XFILLER_3_623 VPWR VGND sg13g2_decap_8
XFILLER_47_844 VPWR VGND sg13g2_decap_8
XFILLER_0_14 VPWR VGND sg13g2_decap_4
XFILLER_19_546 VPWR VGND sg13g2_decap_8
XFILLER_46_398 VPWR VGND sg13g2_decap_8
XFILLER_34_549 VPWR VGND sg13g2_decap_8
XFILLER_15_763 VPWR VGND sg13g2_decap_8
XFILLER_9_34 VPWR VGND sg13g2_fill_1
XFILLER_30_700 VPWR VGND sg13g2_decap_8
XFILLER_30_777 VPWR VGND sg13g2_decap_8
XFILLER_31_1013 VPWR VGND sg13g2_decap_8
XFILLER_7_940 VPWR VGND sg13g2_decap_8
X_3540_ _1006_ _0978_ _0990_ VPWR VGND sg13g2_xnor2_1
X_3471_ _0936_ _0937_ _0935_ _0939_ VPWR VGND _0938_ sg13g2_nand4_1
X_2422_ _1729_ VPWR _1839_ VGND net726 net733 sg13g2_o21ai_1
X_2353_ net727 _1769_ _1770_ VPWR VGND sg13g2_nor2_1
X_4023_ _1395_ _1340_ sap_3_inst.reg_file_inst.array_serializer_inst.data\[6\]\[4\]
+ net796 sap_3_inst.reg_file_inst.array_serializer_inst.data\[3\]\[4\] VPWR VGND sg13g2_a22oi_1
X_2284_ VGND VPWR net724 _1673_ _1701_ _1700_ sg13g2_a21oi_1
XFILLER_38_811 VPWR VGND sg13g2_decap_8
XFILLER_38_888 VPWR VGND sg13g2_decap_8
XFILLER_25_527 VPWR VGND sg13g2_decap_8
XFILLER_33_582 VPWR VGND sg13g2_decap_8
XFILLER_21_755 VPWR VGND sg13g2_decap_8
X_3807_ net658 sap_3_inst.reg_file_inst.array_serializer_inst.data\[6\]\[3\] _1226_
+ _0117_ VPWR VGND sg13g2_a21o_1
X_3738_ _1176_ _1174_ _1175_ net655 sap_3_inst.reg_file_inst.array_serializer_inst.data\[4\]\[1\]
+ VPWR VGND sg13g2_a22oi_1
X_3669_ _1120_ net609 _0979_ VPWR VGND sg13g2_nand2_1
XFILLER_0_637 VPWR VGND sg13g2_decap_8
XFILLER_48_619 VPWR VGND sg13g2_decap_8
XFILLER_28_310 VPWR VGND sg13g2_fill_2
XFILLER_29_866 VPWR VGND sg13g2_decap_8
XFILLER_16_527 VPWR VGND sg13g2_decap_8
XFILLER_44_869 VPWR VGND sg13g2_decap_8
XFILLER_12_744 VPWR VGND sg13g2_decap_8
XFILLER_15_1008 VPWR VGND sg13g2_decap_8
XFILLER_8_759 VPWR VGND sg13g2_decap_8
XFILLER_7_236 VPWR VGND sg13g2_fill_2
XFILLER_4_921 VPWR VGND sg13g2_decap_8
XFILLER_4_998 VPWR VGND sg13g2_decap_8
XFILLER_3_497 VPWR VGND sg13g2_decap_8
XFILLER_47_641 VPWR VGND sg13g2_decap_8
XFILLER_22_508 VPWR VGND sg13g2_decap_8
XFILLER_35_869 VPWR VGND sg13g2_decap_8
X_2971_ VGND VPWR _0454_ _0469_ _0471_ _0468_ sg13g2_a21oi_1
XFILLER_15_560 VPWR VGND sg13g2_decap_8
XFILLER_30_574 VPWR VGND sg13g2_decap_8
X_3523_ _0987_ _0988_ _0986_ _0989_ VPWR VGND sg13g2_nand3_1
X_3454_ _0923_ _0836_ _0847_ VPWR VGND sg13g2_xnor2_1
XFILLER_41_0 VPWR VGND sg13g2_fill_1
X_2405_ net759 _1762_ _1822_ VPWR VGND sg13g2_and2_1
X_3385_ net612 _0855_ _0856_ VPWR VGND sg13g2_nor2_1
X_2336_ _1753_ net725 _1693_ VPWR VGND sg13g2_nand2_1
XFILLER_29_107 VPWR VGND sg13g2_fill_1
X_2267_ sap_3_inst.controller_inst.stage\[0\] _1683_ _1684_ VPWR VGND sg13g2_nor2_2
XFILLER_26_803 VPWR VGND sg13g2_decap_8
X_4006_ _1374_ _1378_ _1373_ _1380_ VPWR VGND _1379_ sg13g2_nand4_1
X_2198_ VGND VPWR _1608_ _1614_ _1615_ _1606_ sg13g2_a21oi_1
XFILLER_38_685 VPWR VGND sg13g2_decap_8
XFILLER_41_817 VPWR VGND sg13g2_decap_8
XFILLER_13_508 VPWR VGND sg13g2_decap_8
XFILLER_21_552 VPWR VGND sg13g2_decap_8
XFILLER_0_412 VPWR VGND sg13g2_fill_1
XFILLER_1_968 VPWR VGND sg13g2_decap_8
XFILLER_48_416 VPWR VGND sg13g2_decap_8
Xhold20 u_ser.shadow_reg\[4\] VPWR VGND net67 sg13g2_dlygate4sd3_1
Xhold31 sap_3_inst.reg_file_inst.array_serializer_inst.state\[0\] VPWR VGND net78
+ sg13g2_dlygate4sd3_1
XFILLER_17_814 VPWR VGND sg13g2_decap_8
XFILLER_29_663 VPWR VGND sg13g2_decap_8
XFILLER_44_666 VPWR VGND sg13g2_decap_8
XFILLER_25_891 VPWR VGND sg13g2_decap_8
XFILLER_12_541 VPWR VGND sg13g2_decap_8
XFILLER_8_556 VPWR VGND sg13g2_decap_8
XFILLER_4_795 VPWR VGND sg13g2_decap_8
X_3170_ _0633_ _0634_ _0637_ _0640_ _0641_ VPWR VGND sg13g2_nor4_1
X_2121_ _1539_ sap_3_inst.reg_file_inst.array_serializer_inst.data\[0\]\[6\] VPWR
+ VGND sg13g2_inv_2
XFILLER_48_983 VPWR VGND sg13g2_decap_8
XFILLER_35_666 VPWR VGND sg13g2_decap_8
XFILLER_16_891 VPWR VGND sg13g2_decap_8
X_2954_ _0455_ net783 net708 VPWR VGND sg13g2_xnor2_1
X_2885_ _2000_ VPWR _0388_ VGND net792 _0386_ sg13g2_o21ai_1
XFILLER_31_894 VPWR VGND sg13g2_decap_8
X_3506_ VGND VPWR _0802_ _0861_ _0973_ net585 sg13g2_a21oi_1
X_3437_ _0906_ sap_3_inst.reg_file_inst.array_serializer_inst.data\[0\]\[2\] net596
+ VPWR VGND sg13g2_nand2_1
XFILLER_44_1023 VPWR VGND sg13g2_decap_4
X_3368_ _0839_ net677 sap_3_inst.reg_file_inst.array_serializer_inst.data\[5\]\[1\]
+ net683 sap_3_inst.reg_file_inst.array_serializer_inst.data\[6\]\[1\] VPWR VGND sg13g2_a22oi_1
X_2319_ VGND VPWR _1554_ _1679_ _1736_ _1735_ sg13g2_a21oi_1
XFILLER_46_909 VPWR VGND sg13g2_decap_8
X_3299_ _0768_ _0769_ _0770_ VPWR VGND sg13g2_and2_1
XFILLER_26_600 VPWR VGND sg13g2_decap_8
XFILLER_38_482 VPWR VGND sg13g2_decap_8
XFILLER_41_614 VPWR VGND sg13g2_decap_8
XFILLER_14_828 VPWR VGND sg13g2_decap_8
XFILLER_26_677 VPWR VGND sg13g2_decap_8
XFILLER_40_168 VPWR VGND sg13g2_fill_2
XFILLER_40_146 VPWR VGND sg13g2_fill_2
XFILLER_22_872 VPWR VGND sg13g2_decap_8
XFILLER_31_76 VPWR VGND sg13g2_fill_2
XFILLER_5_548 VPWR VGND sg13g2_decap_8
Xoutput21 net21 uio_out[4] VPWR VGND sg13g2_buf_1
Xoutput10 net10 uio_oe[1] VPWR VGND sg13g2_buf_1
XFILLER_1_765 VPWR VGND sg13g2_decap_8
XFILLER_49_769 VPWR VGND sg13g2_decap_8
XFILLER_17_611 VPWR VGND sg13g2_decap_8
XFILLER_45_953 VPWR VGND sg13g2_decap_8
XFILLER_44_463 VPWR VGND sg13g2_decap_8
XFILLER_17_688 VPWR VGND sg13g2_decap_8
XFILLER_16_198 VPWR VGND sg13g2_fill_1
XFILLER_31_102 VPWR VGND sg13g2_fill_2
XFILLER_32_658 VPWR VGND sg13g2_decap_8
XFILLER_13_872 VPWR VGND sg13g2_decap_8
XFILLER_12_382 VPWR VGND sg13g2_fill_2
XFILLER_9_865 VPWR VGND sg13g2_decap_8
X_2670_ net577 VPWR _0204_ VGND _0199_ _0203_ sg13g2_o21ai_1
X_4271_ net811 VGND VPWR _0128_ sap_3_inst.reg_file_inst.array_serializer_inst.data\[7\]\[6\]
+ clknet_5_9__leaf_sap_3_inst.alu_inst.clk_regs sg13g2_dfrbpq_2
XFILLER_4_592 VPWR VGND sg13g2_decap_8
X_3222_ _1650_ _1652_ _1640_ _0693_ VPWR VGND _1691_ sg13g2_nand4_1
X_3153_ VGND VPWR net717 net569 _0063_ _0626_ sg13g2_a21oi_1
X_2104_ VPWR _1522_ sap_3_inst.reg_file_inst.array_serializer_inst.data\[3\]\[0\]
+ VGND sg13g2_inv_1
XFILLER_48_780 VPWR VGND sg13g2_decap_8
X_3084_ _0581_ _0361_ _0570_ VPWR VGND sg13g2_nand2b_1
XFILLER_36_953 VPWR VGND sg13g2_decap_8
XFILLER_23_669 VPWR VGND sg13g2_decap_8
X_3986_ _1359_ _1361_ _1362_ VPWR VGND sg13g2_nor2_1
X_2937_ _0438_ net784 sap_3_inst.alu_inst.tmp\[3\] VPWR VGND sg13g2_nand2_1
XFILLER_31_691 VPWR VGND sg13g2_decap_8
X_2868_ VGND VPWR _1508_ net599 _0033_ _0371_ sg13g2_a21oi_1
X_2799_ net714 _1697_ _1704_ _1802_ _0313_ VPWR VGND sg13g2_nor4_1
Xfanout800 u_ser.bit_pos\[0\] net800 VPWR VGND sg13g2_buf_2
Xfanout811 net812 net811 VPWR VGND sg13g2_buf_8
Xfanout822 net825 net822 VPWR VGND sg13g2_buf_8
Xfanout833 net834 net833 VPWR VGND sg13g2_buf_8
XFILLER_46_706 VPWR VGND sg13g2_decap_8
XFILLER_27_931 VPWR VGND sg13g2_decap_8
XFILLER_42_912 VPWR VGND sg13g2_decap_8
XFILLER_26_474 VPWR VGND sg13g2_decap_8
XFILLER_14_625 VPWR VGND sg13g2_decap_8
XFILLER_42_989 VPWR VGND sg13g2_decap_8
XFILLER_41_488 VPWR VGND sg13g2_decap_8
XFILLER_9_128 VPWR VGND sg13g2_fill_1
XFILLER_10_842 VPWR VGND sg13g2_decap_8
XFILLER_6_813 VPWR VGND sg13g2_decap_8
XFILLER_1_562 VPWR VGND sg13g2_decap_8
XFILLER_3_58 VPWR VGND sg13g2_fill_1
XFILLER_49_566 VPWR VGND sg13g2_decap_8
XFILLER_18_942 VPWR VGND sg13g2_decap_8
XFILLER_36_227 VPWR VGND sg13g2_fill_2
XFILLER_45_750 VPWR VGND sg13g2_decap_8
XFILLER_17_485 VPWR VGND sg13g2_decap_8
X_3840_ _1247_ _0301_ _0730_ VPWR VGND sg13g2_nand2_1
XFILLER_33_967 VPWR VGND sg13g2_decap_8
X_3771_ VGND VPWR _1204_ _1021_ net586 sg13g2_or2_1
XFILLER_34_1011 VPWR VGND sg13g2_decap_8
XFILLER_9_662 VPWR VGND sg13g2_decap_8
X_2722_ _0252_ sap_3_inst.alu_flags\[0\] _1902_ VPWR VGND sg13g2_nand2_1
X_2653_ net697 net626 sap_3_inst.reg_file_inst.array_serializer_inst.data\[5\]\[3\]
+ _2060_ VPWR VGND sg13g2_nand3_1
X_2584_ _1993_ _1598_ _1612_ VPWR VGND sg13g2_nand2_1
X_4323_ net825 VGND VPWR _0180_ sap_3_inst.alu_inst.act\[3\] clknet_5_23__leaf_sap_3_inst.alu_inst.clk_regs
+ sg13g2_dfrbpq_1