*SPEF "ieee 1481-1999"
*DESIGN "heichips25_sap3"
*DATE "17:02:07 Thursday August 28, 2025"
*VENDOR "The OpenROAD Project"
*PROGRAM "OpenROAD"
*VERSION "341650e72dad0dc8571822ff8c5d9c5e365327f7"
*DESIGN_FLOW "NAME_SCOPE LOCAL" "PIN_CAP NONE"
*DIVIDER /
*DELIMITER :
*BUS_DELIMITER []
*T_UNIT 1 NS
*C_UNIT 1 PF
*R_UNIT 1 OHM
*L_UNIT 1 HENRY

*NAME_MAP
*3 clk
*4 ena
*5 rst_n
*6 ui_in[0]
*7 ui_in[1]
*8 ui_in[2]
*9 ui_in[3]
*10 ui_in[4]
*11 ui_in[5]
*12 ui_in[6]
*13 ui_in[7]
*14 uio_in[0]
*15 uio_in[1]
*16 uio_in[2]
*17 uio_in[3]
*18 uio_in[4]
*19 uio_in[5]
*20 uio_in[6]
*21 uio_in[7]
*22 uio_oe[0]
*23 uio_oe[1]
*24 uio_oe[2]
*25 uio_oe[3]
*26 uio_oe[4]
*27 uio_oe[5]
*28 uio_oe[6]
*29 uio_oe[7]
*30 uio_out[0]
*31 uio_out[1]
*32 uio_out[2]
*33 uio_out[3]
*34 uio_out[4]
*35 uio_out[5]
*36 uio_out[6]
*37 uio_out[7]
*38 uo_out[0]
*39 uo_out[1]
*40 uo_out[2]
*41 uo_out[3]
*42 uo_out[4]
*43 uo_out[5]
*44 net33
*45 net34
*46 _0000_
*47 _0001_
*48 _0002_
*49 _0003_
*50 _0004_
*51 _0017_
*52 _0018_
*53 _0019_
*54 _0020_
*55 _0021_
*56 _0022_
*57 _0023_
*58 _0024_
*59 _0025_
*60 _0026_
*61 _0027_
*62 _0028_
*63 _0029_
*64 _0030_
*65 _0031_
*66 _0032_
*67 _0033_
*68 _0034_
*69 _0035_
*70 _0036_
*71 _0037_
*72 _0038_
*73 _0039_
*74 _0040_
*75 _0041_
*76 _0042_
*77 _0043_
*78 _0044_
*79 _0045_
*80 _0046_
*81 _0047_
*82 _0048_
*83 _0049_
*84 _0050_
*85 _0051_
*86 _0052_
*87 _0053_
*88 _0054_
*89 _0055_
*90 _0056_
*91 _0057_
*92 _0058_
*93 _0059_
*94 _0060_
*95 _0061_
*96 _0062_
*97 _0063_
*98 _0064_
*99 _0065_
*100 _0066_
*101 _0067_
*102 _0068_
*103 _0069_
*104 _0070_
*105 _0071_
*106 _0072_
*107 _0073_
*108 _0074_
*109 _0075_
*110 _0076_
*111 _0077_
*112 _0078_
*113 _0079_
*114 _0080_
*115 _0081_
*116 _0082_
*117 _0083_
*118 _0084_
*119 _0085_
*120 _0086_
*121 _0087_
*122 _0088_
*123 _0089_
*124 _0090_
*125 _0091_
*126 _0092_
*127 _0093_
*128 _0094_
*129 _0095_
*130 _0096_
*131 _0097_
*132 _0098_
*133 _0099_
*134 _0100_
*135 _0101_
*136 _0102_
*137 _0103_
*138 _0104_
*139 _0105_
*140 _0106_
*141 _0107_
*142 _0108_
*143 _0109_
*144 _0110_
*145 _0111_
*146 _0112_
*147 _0113_
*148 _0114_
*149 _0115_
*150 _0116_
*151 _0117_
*152 _0118_
*153 _0119_
*154 _0120_
*155 _0121_
*156 _0122_
*157 _0123_
*158 _0124_
*159 _0125_
*160 _0126_
*161 _0127_
*162 _0128_
*163 _0129_
*164 _0130_
*165 _0131_
*166 _0132_
*167 _0133_
*168 _0134_
*169 _0135_
*170 _0136_
*171 _0137_
*172 _0138_
*173 _0139_
*174 _0140_
*175 _0141_
*176 _0142_
*177 _0143_
*178 _0144_
*179 _0145_
*180 _0146_
*181 _0147_
*182 _0148_
*183 _0149_
*184 _0150_
*185 _0151_
*186 _0152_
*187 _0153_
*188 _0154_
*189 _0155_
*190 _0156_
*191 _0157_
*192 _0158_
*193 _0159_
*194 _0160_
*195 _0161_
*196 _0162_
*197 _0163_
*198 _0164_
*199 _0165_
*200 _0166_
*201 _0167_
*202 _0168_
*203 _0169_
*204 _0170_
*205 _0171_
*206 _0172_
*207 _0173_
*208 _0174_
*209 _0175_
*210 _0176_
*211 _0177_
*212 _0178_
*213 _0179_
*214 _0180_
*215 _0181_
*216 _0182_
*217 _0183_
*218 _0184_
*219 _0185_
*220 _0186_
*221 _0187_
*222 _0188_
*223 _0189_
*224 _0190_
*225 _0191_
*226 _0192_
*227 _0193_
*228 _0194_
*229 _0195_
*230 _0196_
*231 _0197_
*232 _0198_
*233 _0199_
*234 _0200_
*235 _0201_
*236 _0202_
*237 _0203_
*238 _0204_
*239 _0205_
*240 _0206_
*241 _0207_
*242 _0208_
*243 _0209_
*244 _0210_
*245 _0211_
*246 _0212_
*247 _0213_
*248 _0214_
*249 _0215_
*250 _0216_
*251 _0217_
*252 _0218_
*253 _0219_
*254 _0220_
*255 _0221_
*256 _0222_
*257 _0223_
*258 _0224_
*259 _0225_
*260 _0226_
*261 _0227_
*262 _0228_
*263 _0229_
*264 _0230_
*265 _0231_
*266 _0232_
*267 _0233_
*268 _0234_
*269 _0235_
*270 _0236_
*271 _0237_
*272 _0238_
*273 _0239_
*274 _0240_
*275 _0241_
*276 _0242_
*277 _0243_
*278 _0244_
*279 _0245_
*280 _0246_
*281 _0247_
*282 _0248_
*283 _0249_
*284 _0250_
*285 _0251_
*286 _0252_
*287 _0253_
*288 _0254_
*289 _0255_
*290 _0256_
*291 _0257_
*292 _0258_
*293 _0259_
*294 _0260_
*295 _0261_
*296 _0262_
*297 _0263_
*298 _0264_
*299 _0265_
*300 _0266_
*301 _0267_
*302 _0268_
*303 _0269_
*304 _0270_
*305 _0271_
*306 _0272_
*307 _0273_
*308 _0274_
*309 _0275_
*310 _0276_
*311 _0277_
*312 _0278_
*313 _0279_
*314 _0280_
*315 _0281_
*316 _0282_
*317 _0283_
*318 _0284_
*319 _0285_
*320 _0286_
*321 _0287_
*322 _0288_
*323 _0289_
*324 _0290_
*325 _0291_
*326 _0292_
*327 _0293_
*328 _0294_
*329 _0295_
*330 _0296_
*331 _0297_
*332 _0298_
*333 _0299_
*334 _0300_
*335 _0301_
*336 _0302_
*337 _0303_
*338 _0304_
*339 _0305_
*340 _0306_
*341 _0307_
*342 _0308_
*343 _0309_
*344 _0310_
*345 _0311_
*346 _0312_
*347 _0313_
*348 _0314_
*349 _0315_
*350 _0316_
*351 _0317_
*352 _0318_
*353 _0319_
*354 _0320_
*355 _0321_
*356 _0322_
*357 _0323_
*358 _0324_
*359 _0325_
*360 _0326_
*361 _0327_
*362 _0328_
*363 _0329_
*364 _0330_
*365 _0331_
*366 _0332_
*367 _0333_
*368 _0334_
*369 _0335_
*370 _0336_
*371 _0337_
*372 _0338_
*373 _0339_
*374 _0340_
*375 _0341_
*376 _0342_
*377 _0343_
*378 _0344_
*379 _0345_
*380 _0346_
*381 _0347_
*382 _0348_
*383 _0349_
*384 _0350_
*385 _0351_
*386 _0352_
*387 _0353_
*388 _0354_
*389 _0355_
*390 _0356_
*391 _0357_
*392 _0358_
*393 _0359_
*394 _0360_
*395 _0361_
*396 _0362_
*397 _0363_
*398 _0364_
*399 _0365_
*400 _0366_
*401 _0367_
*402 _0368_
*403 _0369_
*404 _0370_
*405 _0371_
*406 _0372_
*407 _0373_
*408 _0374_
*409 _0375_
*410 _0376_
*411 _0377_
*412 _0378_
*413 _0379_
*414 _0380_
*415 _0381_
*416 _0382_
*417 _0383_
*418 _0384_
*419 _0385_
*420 _0386_
*421 _0387_
*422 _0388_
*423 _0389_
*424 _0390_
*425 _0391_
*426 _0392_
*427 _0393_
*428 _0394_
*429 _0395_
*430 _0396_
*431 _0397_
*432 _0398_
*433 _0399_
*434 _0400_
*435 _0401_
*436 _0402_
*437 _0403_
*438 _0404_
*439 _0405_
*440 _0406_
*441 _0407_
*442 _0408_
*443 _0409_
*444 _0410_
*445 _0411_
*446 _0412_
*447 _0413_
*448 _0414_
*449 _0415_
*450 _0416_
*451 _0417_
*452 _0418_
*453 _0419_
*454 _0420_
*455 _0421_
*456 _0422_
*457 _0423_
*458 _0424_
*459 _0425_
*460 _0426_
*461 _0427_
*462 _0428_
*463 _0429_
*464 _0430_
*465 _0431_
*466 _0432_
*467 _0433_
*468 _0434_
*469 _0435_
*470 _0436_
*471 _0437_
*472 _0438_
*473 _0439_
*474 _0440_
*475 _0441_
*476 _0442_
*477 _0443_
*478 _0444_
*479 _0445_
*480 _0446_
*481 _0447_
*482 _0448_
*483 _0449_
*484 _0450_
*485 _0451_
*486 _0452_
*487 _0453_
*488 _0454_
*489 _0455_
*490 _0456_
*491 _0457_
*492 _0458_
*493 _0459_
*494 _0460_
*495 _0461_
*496 _0462_
*497 _0463_
*498 _0464_
*499 _0465_
*500 _0466_
*501 _0467_
*502 _0468_
*503 _0469_
*504 _0470_
*505 _0471_
*506 _0472_
*507 _0473_
*508 _0474_
*509 _0475_
*510 _0476_
*511 _0477_
*512 _0478_
*513 _0479_
*514 _0480_
*515 _0481_
*516 _0482_
*517 _0483_
*518 _0484_
*519 _0485_
*520 _0486_
*521 _0487_
*522 _0488_
*523 _0489_
*524 _0490_
*525 _0491_
*526 _0492_
*527 _0493_
*528 _0494_
*529 _0495_
*530 _0496_
*531 _0497_
*532 _0498_
*533 _0499_
*534 _0500_
*535 _0501_
*536 _0502_
*537 _0503_
*538 _0504_
*539 _0505_
*540 _0506_
*541 _0507_
*542 _0508_
*543 _0509_
*544 _0510_
*545 _0511_
*546 _0512_
*547 _0513_
*548 _0514_
*549 _0515_
*550 _0516_
*551 _0517_
*552 _0518_
*553 _0519_
*554 _0520_
*555 _0521_
*556 _0522_
*557 _0523_
*558 _0524_
*559 _0525_
*560 _0526_
*561 _0527_
*562 _0528_
*563 _0529_
*564 _0530_
*565 _0531_
*566 _0532_
*567 _0533_
*568 _0534_
*569 _0535_
*570 _0536_
*571 _0537_
*572 _0538_
*573 _0539_
*574 _0540_
*575 _0541_
*576 _0542_
*577 _0543_
*578 _0544_
*579 _0545_
*580 _0546_
*581 _0547_
*582 _0548_
*583 _0549_
*584 _0550_
*585 _0551_
*586 _0552_
*587 _0553_
*588 _0554_
*589 _0555_
*590 _0556_
*591 _0557_
*592 _0558_
*593 _0559_
*594 _0560_
*595 _0561_
*596 _0562_
*597 _0563_
*598 _0564_
*599 _0565_
*600 _0566_
*601 _0567_
*602 _0568_
*603 _0569_
*604 _0570_
*605 _0571_
*606 _0572_
*607 _0573_
*608 _0574_
*609 _0575_
*610 _0576_
*611 _0577_
*612 _0578_
*613 _0579_
*614 _0580_
*615 _0581_
*616 _0582_
*617 _0583_
*618 _0584_
*619 _0585_
*620 _0586_
*621 _0587_
*622 _0588_
*623 _0589_
*624 _0590_
*625 _0591_
*626 _0592_
*627 _0593_
*628 _0594_
*629 _0595_
*630 _0596_
*631 _0597_
*632 _0598_
*633 _0599_
*634 _0600_
*635 _0601_
*636 _0602_
*637 _0603_
*638 _0604_
*639 _0605_
*640 _0606_
*641 _0607_
*642 _0608_
*643 _0609_
*644 _0610_
*645 _0611_
*646 _0612_
*647 _0613_
*648 _0614_
*649 _0615_
*650 _0616_
*651 _0617_
*652 _0618_
*653 _0619_
*654 _0620_
*655 _0621_
*656 _0622_
*657 _0623_
*658 _0624_
*659 _0625_
*660 _0626_
*661 _0627_
*662 _0628_
*663 _0629_
*664 _0630_
*665 _0631_
*666 _0632_
*667 _0633_
*668 _0634_
*669 _0635_
*670 _0636_
*671 _0637_
*672 _0638_
*673 _0639_
*674 _0640_
*675 _0641_
*676 _0642_
*677 _0643_
*678 _0644_
*679 _0645_
*680 _0646_
*681 _0647_
*682 _0648_
*683 _0649_
*684 _0650_
*685 _0651_
*686 _0652_
*687 _0653_
*688 _0654_
*689 _0655_
*690 _0656_
*691 _0657_
*692 _0658_
*693 _0659_
*694 _0660_
*695 _0661_
*696 _0662_
*697 _0663_
*698 _0664_
*699 _0665_
*700 _0666_
*701 _0667_
*702 _0668_
*703 _0669_
*704 _0670_
*705 _0671_
*706 _0672_
*707 _0673_
*708 _0674_
*709 _0675_
*710 _0676_
*711 _0677_
*712 _0678_
*713 _0679_
*714 _0680_
*715 _0681_
*716 _0682_
*717 _0683_
*718 _0684_
*719 _0685_
*720 _0686_
*721 _0687_
*722 _0688_
*723 _0689_
*724 _0690_
*725 _0691_
*726 _0692_
*727 _0693_
*728 _0694_
*729 _0695_
*730 _0696_
*731 _0697_
*732 _0698_
*733 _0699_
*734 _0700_
*735 _0701_
*736 _0702_
*737 _0703_
*738 _0704_
*739 _0705_
*740 _0706_
*741 _0707_
*742 _0708_
*743 _0709_
*744 _0710_
*745 _0711_
*746 _0712_
*747 _0713_
*748 _0714_
*749 _0715_
*750 _0716_
*751 _0717_
*752 _0718_
*753 _0719_
*754 _0720_
*755 _0721_
*756 _0722_
*757 _0723_
*758 _0724_
*759 _0725_
*760 _0726_
*761 _0727_
*762 _0728_
*763 _0729_
*764 _0730_
*765 _0731_
*766 _0732_
*767 _0733_
*768 _0734_
*769 _0735_
*770 _0736_
*771 _0737_
*772 _0738_
*773 _0739_
*774 _0740_
*775 _0741_
*776 _0742_
*777 _0743_
*778 _0744_
*779 _0745_
*780 _0746_
*781 _0747_
*782 _0748_
*783 _0749_
*784 _0750_
*785 _0751_
*786 _0752_
*787 _0753_
*788 _0754_
*789 _0755_
*790 _0756_
*791 _0757_
*792 _0758_
*793 _0759_
*794 _0760_
*795 _0761_
*796 _0762_
*797 _0763_
*798 _0764_
*799 _0765_
*800 _0766_
*801 _0767_
*802 _0768_
*803 _0769_
*804 _0770_
*805 _0771_
*806 _0772_
*807 _0773_
*808 _0774_
*809 _0775_
*810 _0776_
*811 _0777_
*812 _0778_
*813 _0779_
*814 _0780_
*815 _0781_
*816 _0782_
*817 _0783_
*818 _0784_
*819 _0785_
*820 _0786_
*821 _0787_
*822 _0788_
*823 _0789_
*824 _0790_
*825 _0791_
*826 _0792_
*827 _0793_
*828 _0794_
*829 _0795_
*830 _0796_
*831 _0797_
*832 _0798_
*833 _0799_
*834 _0800_
*835 _0801_
*836 _0802_
*837 _0803_
*838 _0804_
*839 _0805_
*840 _0806_
*841 _0807_
*842 _0808_
*843 _0809_
*844 _0810_
*845 _0811_
*846 _0812_
*847 _0813_
*848 _0814_
*849 _0815_
*850 _0816_
*851 _0817_
*852 _0818_
*853 _0819_
*854 _0820_
*855 _0821_
*856 _0822_
*857 _0823_
*858 _0824_
*859 _0825_
*860 _0826_
*861 _0827_
*862 _0828_
*863 _0829_
*864 _0830_
*865 _0831_
*866 _0832_
*867 _0833_
*868 _0834_
*869 _0835_
*870 _0836_
*871 _0837_
*872 _0838_
*873 _0839_
*874 _0840_
*875 _0841_
*876 _0842_
*877 _0843_
*878 _0844_
*879 _0845_
*880 _0846_
*881 _0847_
*882 _0848_
*883 _0849_
*884 _0850_
*885 _0851_
*886 _0852_
*887 _0853_
*888 _0854_
*889 _0855_
*890 _0856_
*891 _0857_
*892 _0858_
*893 _0859_
*894 _0860_
*895 _0861_
*896 _0862_
*897 _0863_
*898 _0864_
*899 _0865_
*900 _0866_
*901 _0867_
*902 _0868_
*903 _0869_
*904 _0870_
*905 _0871_
*906 _0872_
*907 _0873_
*908 _0874_
*909 _0875_
*910 _0876_
*911 _0877_
*912 _0878_
*913 _0879_
*914 _0880_
*915 _0881_
*916 _0882_
*917 _0883_
*918 _0884_
*919 _0885_
*920 _0886_
*921 _0887_
*922 _0888_
*923 _0889_
*924 _0890_
*925 _0891_
*926 _0892_
*927 _0893_
*928 _0894_
*929 _0895_
*930 _0896_
*931 _0897_
*932 _0898_
*933 _0899_
*934 _0900_
*935 _0901_
*936 _0902_
*937 _0903_
*938 _0904_
*939 _0905_
*940 _0906_
*941 _0907_
*942 _0908_
*943 _0909_
*944 _0910_
*945 _0911_
*946 _0912_
*947 _0913_
*948 _0914_
*949 _0915_
*950 _0916_
*951 _0917_
*952 _0918_
*953 _0919_
*954 _0920_
*955 _0921_
*956 _0922_
*957 _0923_
*958 _0924_
*959 _0925_
*960 _0926_
*961 _0927_
*962 _0928_
*963 _0929_
*964 _0930_
*965 _0931_
*966 _0932_
*967 _0933_
*968 _0934_
*969 _0935_
*970 _0936_
*971 _0937_
*972 _0938_
*973 _0939_
*974 _0940_
*975 _0941_
*976 _0942_
*977 _0943_
*978 _0944_
*979 _0945_
*980 _0946_
*981 _0947_
*982 _0948_
*983 _0949_
*984 _0950_
*985 _0951_
*986 _0952_
*987 _0953_
*988 _0954_
*989 _0955_
*990 _0956_
*991 _0957_
*992 _0958_
*993 _0959_
*994 _0960_
*995 _0961_
*996 _0962_
*997 _0963_
*998 _0964_
*999 _0965_
*1000 _0966_
*1001 _0967_
*1002 _0968_
*1003 _0969_
*1004 _0970_
*1005 _0971_
*1006 _0972_
*1007 _0973_
*1008 _0974_
*1009 _0975_
*1010 _0976_
*1011 _0977_
*1012 _0978_
*1013 _0979_
*1014 _0980_
*1015 _0981_
*1016 _0982_
*1017 _0983_
*1018 _0984_
*1019 _0985_
*1020 _0986_
*1021 _0987_
*1022 _0988_
*1023 _0989_
*1024 _0990_
*1025 _0991_
*1026 _0992_
*1027 _0993_
*1028 _0994_
*1029 _0995_
*1030 _0996_
*1031 _0997_
*1032 _0998_
*1033 _0999_
*1034 _1000_
*1035 _1001_
*1036 _1002_
*1037 _1003_
*1038 _1004_
*1039 _1005_
*1040 _1006_
*1041 _1007_
*1042 _1008_
*1043 _1009_
*1044 _1010_
*1045 _1011_
*1046 _1012_
*1047 _1013_
*1048 _1014_
*1049 _1015_
*1050 _1016_
*1051 _1017_
*1052 _1018_
*1053 _1019_
*1054 _1020_
*1055 _1021_
*1056 _1022_
*1057 _1023_
*1058 _1024_
*1059 _1025_
*1060 _1026_
*1061 _1027_
*1062 _1028_
*1063 _1029_
*1064 _1030_
*1065 _1031_
*1066 _1032_
*1067 _1033_
*1068 _1034_
*1069 _1035_
*1070 _1036_
*1071 _1037_
*1072 _1038_
*1073 _1039_
*1074 _1040_
*1075 _1041_
*1076 _1042_
*1077 _1043_
*1078 _1044_
*1079 _1045_
*1080 _1046_
*1081 _1047_
*1082 _1048_
*1083 _1049_
*1084 _1050_
*1085 _1051_
*1086 _1052_
*1087 _1053_
*1088 _1054_
*1089 _1055_
*1090 _1056_
*1091 _1057_
*1092 _1058_
*1093 _1059_
*1094 _1060_
*1095 _1061_
*1096 _1062_
*1097 _1063_
*1098 _1064_
*1099 _1065_
*1100 _1066_
*1101 _1067_
*1102 _1068_
*1103 _1069_
*1104 _1070_
*1105 _1071_
*1106 _1072_
*1107 _1073_
*1108 _1074_
*1109 _1075_
*1110 _1076_
*1111 _1077_
*1112 _1078_
*1113 _1079_
*1114 _1080_
*1115 _1081_
*1116 _1082_
*1117 _1083_
*1118 _1084_
*1119 _1085_
*1120 _1086_
*1121 _1087_
*1122 _1088_
*1123 _1089_
*1124 _1090_
*1125 _1091_
*1126 _1092_
*1127 _1093_
*1128 _1094_
*1129 _1095_
*1130 _1096_
*1131 _1097_
*1132 _1098_
*1133 _1099_
*1134 _1100_
*1135 _1101_
*1136 _1102_
*1137 _1103_
*1138 _1104_
*1139 _1105_
*1140 _1106_
*1141 _1107_
*1142 _1108_
*1143 _1109_
*1144 _1110_
*1145 _1111_
*1146 _1112_
*1147 _1113_
*1148 _1114_
*1149 _1115_
*1150 _1116_
*1151 _1117_
*1152 _1118_
*1153 _1119_
*1154 _1120_
*1155 _1121_
*1156 _1122_
*1157 _1123_
*1158 _1124_
*1159 _1125_
*1160 _1126_
*1161 _1127_
*1162 _1128_
*1163 _1129_
*1164 _1130_
*1165 _1131_
*1166 _1132_
*1167 _1133_
*1168 _1134_
*1169 _1135_
*1170 _1136_
*1171 _1137_
*1172 _1138_
*1173 _1139_
*1174 _1140_
*1175 _1141_
*1176 _1142_
*1177 _1143_
*1178 _1144_
*1179 _1145_
*1180 _1146_
*1181 _1147_
*1182 _1148_
*1183 _1149_
*1184 _1150_
*1185 _1151_
*1186 _1152_
*1187 _1153_
*1188 _1154_
*1189 _1155_
*1190 _1156_
*1191 _1157_
*1192 _1158_
*1193 _1159_
*1194 _1160_
*1195 _1161_
*1196 _1162_
*1197 _1163_
*1198 _1164_
*1199 _1165_
*1200 _1166_
*1201 _1167_
*1202 _1168_
*1203 _1169_
*1204 _1170_
*1205 _1171_
*1206 _1172_
*1207 _1173_
*1208 _1174_
*1209 _1175_
*1210 _1176_
*1211 _1177_
*1212 _1178_
*1213 _1179_
*1214 _1180_
*1215 _1181_
*1216 _1182_
*1217 _1183_
*1218 _1184_
*1219 _1185_
*1220 _1186_
*1221 _1187_
*1222 _1188_
*1223 _1189_
*1224 _1190_
*1225 _1191_
*1226 _1192_
*1227 _1193_
*1228 _1194_
*1229 _1195_
*1230 _1196_
*1231 _1197_
*1232 _1198_
*1233 _1199_
*1234 _1200_
*1235 _1201_
*1236 _1202_
*1237 _1203_
*1238 _1204_
*1239 _1205_
*1240 _1206_
*1241 _1207_
*1242 _1208_
*1243 _1209_
*1244 _1210_
*1245 _1211_
*1246 _1212_
*1247 _1213_
*1248 _1214_
*1249 _1215_
*1250 _1216_
*1251 _1217_
*1252 _1218_
*1253 _1219_
*1254 _1220_
*1255 _1221_
*1256 _1222_
*1257 _1223_
*1258 _1224_
*1259 _1225_
*1260 _1226_
*1261 _1227_
*1262 _1228_
*1263 _1229_
*1264 _1230_
*1265 _1231_
*1266 _1232_
*1267 _1233_
*1268 _1234_
*1269 _1235_
*1270 _1236_
*1271 _1237_
*1272 _1238_
*1273 _1239_
*1274 _1240_
*1275 _1241_
*1276 _1242_
*1277 _1243_
*1278 _1244_
*1279 _1245_
*1280 _1246_
*1281 _1247_
*1282 _1248_
*1283 _1249_
*1284 _1250_
*1285 _1251_
*1286 _1252_
*1287 _1253_
*1288 _1254_
*1289 _1255_
*1290 _1256_
*1291 _1257_
*1292 _1258_
*1293 _1259_
*1294 _1260_
*1295 _1261_
*1296 _1262_
*1297 _1263_
*1298 _1264_
*1299 _1265_
*1300 _1266_
*1301 _1267_
*1302 _1268_
*1303 _1269_
*1304 _1270_
*1305 _1271_
*1306 _1272_
*1307 _1273_
*1308 _1274_
*1309 _1275_
*1310 _1276_
*1311 _1277_
*1312 _1278_
*1313 _1279_
*1314 _1280_
*1315 _1281_
*1316 _1282_
*1317 _1283_
*1318 _1284_
*1319 _1285_
*1320 _1286_
*1321 _1287_
*1322 _1288_
*1323 _1289_
*1324 _1290_
*1325 _1291_
*1326 _1292_
*1327 _1293_
*1328 _1294_
*1329 _1295_
*1330 _1296_
*1331 _1297_
*1332 _1298_
*1333 _1299_
*1334 _1300_
*1335 _1301_
*1336 _1302_
*1337 _1303_
*1338 _1304_
*1339 _1305_
*1340 _1306_
*1341 _1307_
*1342 _1308_
*1343 _1309_
*1344 _1310_
*1345 _1311_
*1346 _1312_
*1347 _1313_
*1348 _1314_
*1349 _1315_
*1350 _1316_
*1351 _1317_
*1352 _1318_
*1353 _1319_
*1354 _1320_
*1355 _1321_
*1356 _1322_
*1357 _1323_
*1358 _1324_
*1359 _1325_
*1360 _1326_
*1361 _1327_
*1362 _1328_
*1363 _1329_
*1364 _1330_
*1365 _1331_
*1366 _1332_
*1367 _1333_
*1368 _1334_
*1369 _1335_
*1370 _1336_
*1371 _1337_
*1372 _1338_
*1373 _1339_
*1374 _1340_
*1375 _1341_
*1376 _1342_
*1377 _1343_
*1378 _1344_
*1379 _1345_
*1380 _1346_
*1381 _1347_
*1382 _1348_
*1383 _1349_
*1384 _1350_
*1385 _1351_
*1386 _1352_
*1387 _1353_
*1388 _1354_
*1389 _1355_
*1390 _1356_
*1391 _1357_
*1392 _1358_
*1393 _1359_
*1394 _1360_
*1395 _1361_
*1396 _1362_
*1397 _1363_
*1398 _1364_
*1399 _1365_
*1400 _1366_
*1401 _1367_
*1402 _1368_
*1403 _1369_
*1404 _1370_
*1405 _1371_
*1406 _1372_
*1407 _1373_
*1408 _1374_
*1409 _1375_
*1410 _1376_
*1411 _1377_
*1412 _1378_
*1413 _1379_
*1414 _1380_
*1415 _1381_
*1416 _1382_
*1417 _1383_
*1418 _1384_
*1419 _1385_
*1420 _1386_
*1421 _1387_
*1422 _1388_
*1423 _1389_
*1424 _1390_
*1425 _1391_
*1426 _1392_
*1427 _1393_
*1428 _1394_
*1429 _1395_
*1430 _1396_
*1431 _1397_
*1432 _1398_
*1433 _1399_
*1434 _1400_
*1435 _1401_
*1436 _1402_
*1437 _1403_
*1438 _1404_
*1439 _1405_
*1440 _1406_
*1441 _1407_
*1442 _1408_
*1443 _1409_
*1444 _1410_
*1445 _1411_
*1446 _1412_
*1447 _1413_
*1448 _1414_
*1449 _1415_
*1450 _1416_
*1451 _1417_
*1452 _1418_
*1453 _1419_
*1454 _1420_
*1455 _1421_
*1456 _1422_
*1457 _1423_
*1458 _1424_
*1459 _1425_
*1460 _1426_
*1461 _1427_
*1462 _1428_
*1463 _1429_
*1464 _1430_
*1465 _1431_
*1466 _1432_
*1467 _1433_
*1468 _1434_
*1469 _1435_
*1470 _1436_
*1471 _1437_
*1472 _1438_
*1473 _1439_
*1474 _1440_
*1475 _1441_
*1476 _1442_
*1477 _1443_
*1478 _1444_
*1479 _1445_
*1480 _1446_
*1481 _1447_
*1482 _1448_
*1483 _1449_
*1484 _1450_
*1485 _1451_
*1486 _1452_
*1487 _1453_
*1488 _1454_
*1489 _1455_
*1490 _1456_
*1491 _1457_
*1492 _1458_
*1493 _1459_
*1494 _1460_
*1495 _1461_
*1496 _1462_
*1497 _1463_
*1498 _1464_
*1499 _1465_
*1500 _1466_
*1501 _1467_
*1502 _1468_
*1503 _1469_
*1504 _1470_
*1505 _1471_
*1506 _1472_
*1507 _1473_
*1508 _1474_
*1509 _1475_
*1510 _1476_
*1511 _1477_
*1512 _1478_
*1513 _1479_
*1514 _1480_
*1515 _1481_
*1516 _1482_
*1517 _1483_
*1518 _1484_
*1519 _1485_
*1520 _1486_
*1521 _1487_
*1522 _1488_
*1523 _1489_
*1524 _1490_
*1525 _1491_
*1526 _1492_
*1527 _1493_
*1528 _1494_
*1529 _1495_
*1530 _1496_
*1531 _1497_
*1532 _1498_
*1533 _1499_
*1534 _1500_
*1535 _1501_
*1536 _1502_
*1537 _1503_
*1538 _1504_
*1539 _1505_
*1540 _1506_
*1541 _1507_
*1542 _1508_
*1543 _1509_
*1544 _1510_
*1545 _1511_
*1546 _1512_
*1547 _1513_
*1548 _1514_
*1549 _1515_
*1550 _1516_
*1551 _1517_
*1552 _1518_
*1553 _1519_
*1554 _1520_
*1555 _1521_
*1556 _1522_
*1557 _1523_
*1558 _1524_
*1559 _1525_
*1560 _1526_
*1561 _1527_
*1562 _1528_
*1563 _1529_
*1564 _1530_
*1565 _1531_
*1566 _1532_
*1567 _1533_
*1568 _1534_
*1569 _1535_
*1570 _1536_
*1571 _1537_
*1572 _1538_
*1573 _1539_
*1574 _1540_
*1575 _1541_
*1576 _1542_
*1577 _1543_
*1578 _1544_
*1579 _1545_
*1580 _1546_
*1581 _1547_
*1582 _1548_
*1583 _1549_
*1584 _1550_
*1585 _1551_
*1586 _1552_
*1587 _1553_
*1588 _1554_
*1589 _1555_
*1590 _1556_
*1591 _1557_
*1592 _1558_
*1593 _1559_
*1594 _1560_
*1595 _1561_
*1596 _1562_
*1597 _1563_
*1598 _1564_
*1599 _1565_
*1600 _1566_
*1601 _1567_
*1602 _1568_
*1603 _1569_
*1604 _1570_
*1605 _1571_
*1606 _1572_
*1607 _1573_
*1608 _1574_
*1609 _1575_
*1610 _1576_
*1611 _1577_
*1612 _1578_
*1613 _1579_
*1614 _1580_
*1615 _1581_
*1616 _1582_
*1617 _1583_
*1618 _1584_
*1619 _1585_
*1620 _1586_
*1621 _1587_
*1622 _1588_
*1623 _1589_
*1624 _1590_
*1625 _1591_
*1626 _1592_
*1627 _1593_
*1628 _1594_
*1629 _1595_
*1630 _1596_
*1631 _1597_
*1632 _1598_
*1633 _1599_
*1634 _1600_
*1635 _1601_
*1636 _1602_
*1637 _1603_
*1638 _1604_
*1639 _1605_
*1640 _1606_
*1641 _1607_
*1642 _1608_
*1643 _1609_
*1644 _1610_
*1645 _1611_
*1646 _1612_
*1647 _1613_
*1648 _1614_
*1649 _1615_
*1650 _1616_
*1651 _1617_
*1652 _1618_
*1653 _1619_
*1654 _1620_
*1655 _1621_
*1656 _1622_
*1657 _1623_
*1658 _1624_
*1659 _1625_
*1660 _1626_
*1661 _1627_
*1662 _1628_
*1663 _1629_
*1664 _1630_
*1665 _1631_
*1666 _1632_
*1667 _1633_
*1668 _1634_
*1669 _1635_
*1670 _1636_
*1671 _1637_
*1672 _1638_
*1673 _1639_
*1674 _1640_
*1675 _1641_
*1676 _1642_
*1677 _1643_
*1678 _1644_
*1679 _1645_
*1680 _1646_
*1681 _1647_
*1682 _1648_
*1683 _1649_
*1684 _1650_
*1685 _1651_
*1686 _1652_
*1687 _1653_
*1688 _1654_
*1689 _1655_
*1690 _1656_
*1691 _1657_
*1692 _1658_
*1693 _1659_
*1694 _1660_
*1695 _1661_
*1696 _1662_
*1697 _1663_
*1698 _1664_
*1699 _1665_
*1700 _1666_
*1701 _1667_
*1702 _1668_
*1703 _1669_
*1704 _1670_
*1705 _1671_
*1706 _1672_
*1707 _1673_
*1708 _1674_
*1709 _1675_
*1710 _1676_
*1711 _1677_
*1712 _1678_
*1713 _1679_
*1714 _1680_
*1715 _1681_
*1716 _1682_
*1717 _1683_
*1718 _1684_
*1719 _1685_
*1720 _1686_
*1721 _1687_
*1722 _1688_
*1723 _1689_
*1724 _1690_
*1725 _1691_
*1726 _1692_
*1727 _1693_
*1728 _1694_
*1729 _1695_
*1730 _1696_
*1731 _1697_
*1732 _1698_
*1733 _1699_
*1734 _1700_
*1735 _1701_
*1736 _1702_
*1737 _1703_
*1738 _1704_
*1739 _1705_
*1740 _1706_
*1741 _1707_
*1742 _1708_
*1743 _1709_
*1744 _1710_
*1745 _1711_
*1746 _1712_
*1747 _1713_
*1748 _1714_
*1749 _1715_
*1750 _1716_
*1751 _1717_
*1752 _1718_
*1753 _1719_
*1754 _1720_
*1755 _1721_
*1756 _1722_
*1757 _1723_
*1758 _1724_
*1759 _1725_
*1760 _1726_
*1761 _1727_
*1762 _1728_
*1763 _1729_
*1764 _1730_
*1765 _1731_
*1766 _1732_
*1767 _1733_
*1768 _1734_
*1769 _1735_
*1770 _1736_
*1771 _1737_
*1772 _1738_
*1773 _1739_
*1774 _1740_
*1775 _1741_
*1776 _1742_
*1777 _1743_
*1778 _1744_
*1779 _1745_
*1780 _1746_
*1781 _1747_
*1782 _1748_
*1783 _1749_
*1784 _1750_
*1785 _1751_
*1786 _1752_
*1787 _1753_
*1788 _1754_
*1789 _1755_
*1790 _1756_
*1791 _1757_
*1792 _1758_
*1793 _1759_
*1794 _1760_
*1795 _1761_
*1796 _1762_
*1797 _1763_
*1798 _1764_
*1799 _1765_
*1800 _1766_
*1801 _1767_
*1802 _1768_
*1803 _1769_
*1804 _1770_
*1805 _1771_
*1806 _1772_
*1807 _1773_
*1808 _1774_
*1809 _1775_
*1810 _1776_
*1811 _1777_
*1812 _1778_
*1813 _1779_
*1814 _1780_
*1815 _1781_
*1816 _1782_
*1817 _1783_
*1818 _1784_
*1819 _1785_
*1820 _1786_
*1821 _1787_
*1822 _1788_
*1823 _1789_
*1824 _1790_
*1825 _1791_
*1826 _1792_
*1827 _1793_
*1828 _1794_
*1829 _1795_
*1830 _1796_
*1831 _1797_
*1832 _1798_
*1833 _1799_
*1834 _1800_
*1835 _1801_
*1836 _1802_
*1837 _1803_
*1838 _1804_
*1839 _1805_
*1840 _1806_
*1841 _1807_
*1842 _1808_
*1843 _1809_
*1844 _1810_
*1845 _1811_
*1846 _1812_
*1847 _1813_
*1848 _1814_
*1849 _1815_
*1850 _1816_
*1851 _1817_
*1852 _1818_
*1853 _1819_
*1854 _1820_
*1855 _1821_
*1856 _1822_
*1857 _1823_
*1858 _1824_
*1859 _1825_
*1860 _1826_
*1861 _1827_
*1862 _1828_
*1863 _1829_
*1864 _1830_
*1865 _1831_
*1866 _1832_
*1867 _1833_
*1868 _1834_
*1869 _1835_
*1870 _1836_
*1871 _1837_
*1872 _1838_
*1873 _1839_
*1874 _1840_
*1875 _1841_
*1876 _1842_
*1877 _1843_
*1878 _1844_
*1879 _1845_
*1880 _1846_
*1881 _1847_
*1882 _1848_
*1883 _1849_
*1884 _1850_
*1885 _1851_
*1886 _1852_
*1887 _1853_
*1888 _1854_
*1889 _1855_
*1890 _1856_
*1891 _1857_
*1892 _1858_
*1893 _1859_
*1894 _1860_
*1895 _1861_
*1896 _1862_
*1897 _1863_
*1898 _1864_
*1899 _1865_
*1900 _1866_
*1901 _1867_
*1902 _1868_
*1903 _1869_
*1904 _1870_
*1905 _1871_
*1906 _1872_
*1907 _1873_
*1908 _1874_
*1909 _1875_
*1910 _1876_
*1911 _1877_
*1912 _1878_
*1913 _1879_
*1914 _1880_
*1915 _1881_
*1916 _1882_
*1917 _1883_
*1918 _1884_
*1919 _1885_
*1920 _1886_
*1921 _1887_
*1922 _1888_
*1923 _1889_
*1924 _1890_
*1925 _1891_
*1926 _1892_
*1927 _1893_
*1928 _1894_
*1929 _1895_
*1930 _1896_
*1931 _1897_
*1932 _1898_
*1933 _1899_
*1934 _1900_
*1935 _1901_
*1936 _1902_
*1937 _1903_
*1938 _1904_
*1939 _1905_
*1940 _1906_
*1941 _1907_
*1942 _1908_
*1943 _1909_
*1944 _1910_
*1945 _1911_
*1946 _1912_
*1947 _1913_
*1948 _1914_
*1949 _1915_
*1950 _1916_
*1951 _1917_
*1952 _1918_
*1953 _1919_
*1954 _1920_
*1955 _1921_
*1956 _1922_
*1957 _1923_
*1958 _1924_
*1959 _1925_
*1960 _1926_
*1961 _1927_
*1962 _1928_
*1963 _1929_
*1964 _1930_
*1965 _1931_
*1966 _1932_
*1967 _1933_
*1968 _1934_
*1969 _1935_
*1970 _1936_
*1971 _1937_
*1972 _1938_
*1973 _1939_
*1974 _1940_
*1975 _1941_
*1976 _1942_
*1977 _1943_
*1978 _1944_
*1979 _1945_
*1980 _1946_
*1981 _1947_
*1982 _1948_
*1983 _1949_
*1984 _1950_
*1985 _1951_
*1986 _1952_
*1987 _1953_
*1988 _1954_
*1989 _1955_
*1990 _1956_
*1991 _1957_
*1992 _1958_
*1993 _1959_
*1994 _1960_
*1995 _1961_
*1996 _1962_
*1997 _1963_
*1998 _1964_
*1999 _1965_
*2000 _1966_
*2001 _1967_
*2002 _1968_
*2003 _1969_
*2004 _1970_
*2005 _1971_
*2006 _1972_
*2007 _1973_
*2008 _1974_
*2009 _1975_
*2010 _1976_
*2011 _1977_
*2012 _1978_
*2013 _1979_
*2014 _1980_
*2015 _1981_
*2016 _1982_
*2017 _1983_
*2018 _1984_
*2019 _1985_
*2020 _1986_
*2021 _1987_
*2022 _1988_
*2023 _1989_
*2024 _1990_
*2025 _1991_
*2026 _1992_
*2027 _1993_
*2028 _1994_
*2029 _1995_
*2030 _1996_
*2031 _1997_
*2032 _1998_
*2033 _1999_
*2034 _2000_
*2035 _2001_
*2036 _2002_
*2037 _2003_
*2038 _2004_
*2039 _2005_
*2040 _2006_
*2041 _2007_
*2042 _2008_
*2043 _2009_
*2044 _2010_
*2045 _2011_
*2046 _2012_
*2047 _2013_
*2048 _2014_
*2049 _2015_
*2050 _2016_
*2051 _2017_
*2052 _2018_
*2053 _2019_
*2054 _2020_
*2055 _2021_
*2056 _2022_
*2057 _2023_
*2058 _2024_
*2059 _2025_
*2060 _2026_
*2061 _2027_
*2062 _2028_
*2063 _2029_
*2064 _2030_
*2065 _2031_
*2066 _2032_
*2067 _2033_
*2068 _2034_
*2069 _2035_
*2070 _2036_
*2071 _2037_
*2072 _2038_
*2073 _2039_
*2074 _2040_
*2075 _2041_
*2076 _2042_
*2077 _2043_
*2078 _2044_
*2079 _2045_
*2080 _2046_
*2081 _2047_
*2082 _2048_
*2083 _2049_
*2084 _2050_
*2085 _2051_
*2086 _2052_
*2087 _2053_
*2088 _2054_
*2089 _2055_
*2090 _2056_
*2091 _2057_
*2092 _2058_
*2093 _2059_
*2094 _2060_
*2095 _2061_
*2096 _2062_
*2097 _2063_
*2098 _2064_
*2099 _2065_
*2100 _2066_
*2101 _2067_
*2102 _2068_
*2103 clk_div_out
*2104 clknet_0_clk
*2105 clknet_0_clk_div_out
*2106 clknet_0_sap_3_inst\.alu_inst\.clk
*2107 clknet_0_sap_3_inst\.alu_inst\.clk_regs
*2108 clknet_1_0__leaf_clk_div_out
*2109 clknet_1_0__leaf_sap_3_inst\.alu_inst\.clk
*2110 clknet_1_1__leaf_clk_div_out
*2111 clknet_1_1__leaf_sap_3_inst\.alu_inst\.clk
*2112 clknet_3_0__leaf_clk
*2113 clknet_3_1__leaf_clk
*2114 clknet_3_2__leaf_clk
*2115 clknet_3_3__leaf_clk
*2116 clknet_3_4__leaf_clk
*2117 clknet_3_5__leaf_clk
*2118 clknet_3_6__leaf_clk
*2119 clknet_3_7__leaf_clk
*2120 clknet_4_0_0_sap_3_inst\.alu_inst\.clk_regs
*2121 clknet_4_10_0_sap_3_inst\.alu_inst\.clk_regs
*2122 clknet_4_11_0_sap_3_inst\.alu_inst\.clk_regs
*2123 clknet_4_12_0_sap_3_inst\.alu_inst\.clk_regs
*2124 clknet_4_13_0_sap_3_inst\.alu_inst\.clk_regs
*2125 clknet_4_14_0_sap_3_inst\.alu_inst\.clk_regs
*2126 clknet_4_15_0_sap_3_inst\.alu_inst\.clk_regs
*2127 clknet_4_1_0_sap_3_inst\.alu_inst\.clk_regs
*2128 clknet_4_2_0_sap_3_inst\.alu_inst\.clk_regs
*2129 clknet_4_3_0_sap_3_inst\.alu_inst\.clk_regs
*2130 clknet_4_4_0_sap_3_inst\.alu_inst\.clk_regs
*2131 clknet_4_5_0_sap_3_inst\.alu_inst\.clk_regs
*2132 clknet_4_6_0_sap_3_inst\.alu_inst\.clk_regs
*2133 clknet_4_7_0_sap_3_inst\.alu_inst\.clk_regs
*2134 clknet_4_8_0_sap_3_inst\.alu_inst\.clk_regs
*2135 clknet_4_9_0_sap_3_inst\.alu_inst\.clk_regs
*2136 clknet_5_0__leaf_sap_3_inst\.alu_inst\.clk_regs
*2137 clknet_5_10__leaf_sap_3_inst\.alu_inst\.clk_regs
*2138 clknet_5_11__leaf_sap_3_inst\.alu_inst\.clk_regs
*2139 clknet_5_12__leaf_sap_3_inst\.alu_inst\.clk_regs
*2140 clknet_5_13__leaf_sap_3_inst\.alu_inst\.clk_regs
*2141 clknet_5_14__leaf_sap_3_inst\.alu_inst\.clk_regs
*2142 clknet_5_15__leaf_sap_3_inst\.alu_inst\.clk_regs
*2143 clknet_5_16__leaf_sap_3_inst\.alu_inst\.clk_regs
*2144 clknet_5_17__leaf_sap_3_inst\.alu_inst\.clk_regs
*2145 clknet_5_18__leaf_sap_3_inst\.alu_inst\.clk_regs
*2146 clknet_5_19__leaf_sap_3_inst\.alu_inst\.clk_regs
*2147 clknet_5_1__leaf_sap_3_inst\.alu_inst\.clk_regs
*2148 clknet_5_20__leaf_sap_3_inst\.alu_inst\.clk_regs
*2149 clknet_5_21__leaf_sap_3_inst\.alu_inst\.clk_regs
*2150 clknet_5_22__leaf_sap_3_inst\.alu_inst\.clk_regs
*2151 clknet_5_23__leaf_sap_3_inst\.alu_inst\.clk_regs
*2152 clknet_5_24__leaf_sap_3_inst\.alu_inst\.clk_regs
*2153 clknet_5_25__leaf_sap_3_inst\.alu_inst\.clk_regs
*2154 clknet_5_26__leaf_sap_3_inst\.alu_inst\.clk_regs
*2155 clknet_5_27__leaf_sap_3_inst\.alu_inst\.clk_regs
*2156 clknet_5_28__leaf_sap_3_inst\.alu_inst\.clk_regs
*2157 clknet_5_29__leaf_sap_3_inst\.alu_inst\.clk_regs
*2158 clknet_5_2__leaf_sap_3_inst\.alu_inst\.clk_regs
*2159 clknet_5_30__leaf_sap_3_inst\.alu_inst\.clk_regs
*2160 clknet_5_31__leaf_sap_3_inst\.alu_inst\.clk_regs
*2161 clknet_5_3__leaf_sap_3_inst\.alu_inst\.clk_regs
*2162 clknet_5_4__leaf_sap_3_inst\.alu_inst\.clk_regs
*2163 clknet_5_5__leaf_sap_3_inst\.alu_inst\.clk_regs
*2164 clknet_5_6__leaf_sap_3_inst\.alu_inst\.clk_regs
*2165 clknet_5_7__leaf_sap_3_inst\.alu_inst\.clk_regs
*2166 clknet_5_8__leaf_sap_3_inst\.alu_inst\.clk_regs
*2167 clknet_5_9__leaf_sap_3_inst\.alu_inst\.clk_regs
*2168 clknet_leaf_0_sap_3_inst\.alu_inst\.clk
*2169 clknet_leaf_1_sap_3_inst\.alu_inst\.clk
*2170 clknet_leaf_2_sap_3_inst\.alu_inst\.clk
*2171 mem_mar_we
*2172 mem_ram_we
*2173 net1
*2174 net10
*2175 net11
*2176 net12
*2177 net13
*2178 net14
*2179 net15