* NGSPICE file created from heichips25_top_sorter.ext - technology: ihp-sg13g2

* Black-box entry subcircuit for sg13g2_fill_2 abstract view
.subckt sg13g2_fill_2 VDD VSS
.ends

* Black-box entry subcircuit for sg13g2_dfrbpq_1 abstract view
.subckt sg13g2_dfrbpq_1 RESET_B VSS VDD D Q CLK
.ends

* Black-box entry subcircuit for sg13g2_a21oi_1 abstract view
.subckt sg13g2_a21oi_1 VSS VDD A1 A2 Y B1
.ends

* Black-box entry subcircuit for sg13g2_dfrbpq_2 abstract view
.subckt sg13g2_dfrbpq_2 RESET_B VSS VDD D Q CLK
.ends

* Black-box entry subcircuit for sg13g2_o21ai_1 abstract view
.subckt sg13g2_o21ai_1 B1 VDD Y VSS A1 A2
.ends

* Black-box entry subcircuit for sg13g2_decap_4 abstract view
.subckt sg13g2_decap_4 VDD VSS
.ends

* Black-box entry subcircuit for sg13g2_inv_1 abstract view
.subckt sg13g2_inv_1 VDD Y A VSS
.ends

* Black-box entry subcircuit for sg13g2_nand2_1 abstract view
.subckt sg13g2_nand2_1 Y A B VDD VSS
.ends

* Black-box entry subcircuit for sg13g2_decap_8 abstract view
.subckt sg13g2_decap_8 VDD VSS
.ends

* Black-box entry subcircuit for sg13g2_fill_1 abstract view
.subckt sg13g2_fill_1 VDD VSS
.ends

* Black-box entry subcircuit for sg13g2_dlygate4sd3_1 abstract view
.subckt sg13g2_dlygate4sd3_1 A VDD VSS X
.ends

* Black-box entry subcircuit for sg13g2_tiehi abstract view
.subckt sg13g2_tiehi VDD VSS L_HI
.ends

* Black-box entry subcircuit for sg13g2_mux2_1 abstract view
.subckt sg13g2_mux2_1 A0 A1 S X VDD VSS
.ends

* Black-box entry subcircuit for sg13g2_nand2b_1 abstract view
.subckt sg13g2_nand2b_1 Y B A_N VDD VSS
.ends

* Black-box entry subcircuit for sg13g2_nor2_1 abstract view
.subckt sg13g2_nor2_1 A B Y VDD VSS
.ends

* Black-box entry subcircuit for sg13g2_nor2b_1 abstract view
.subckt sg13g2_nor2b_1 A B_N Y VDD VSS
.ends

* Black-box entry subcircuit for sg13g2_nand3b_1 abstract view
.subckt sg13g2_nand3b_1 B C Y VDD VSS A_N
.ends

* Black-box entry subcircuit for sg13g2_a221oi_1 abstract view
.subckt sg13g2_a221oi_1 VDD VSS B2 C1 B1 A1 Y A2
.ends

* Black-box entry subcircuit for sg13g2_or2_1 abstract view
.subckt sg13g2_or2_1 VSS VDD X B A
.ends

* Black-box entry subcircuit for sg13g2_buf_8 abstract view
.subckt sg13g2_buf_8 A X VDD VSS
.ends

* Black-box entry subcircuit for sg13g2_nand3_1 abstract view
.subckt sg13g2_nand3_1 B C A Y VDD VSS
.ends

* Black-box entry subcircuit for sg13g2_or3_1 abstract view
.subckt sg13g2_or3_1 A B C X VDD VSS
.ends

* Black-box entry subcircuit for sg13g2_a21o_1 abstract view
.subckt sg13g2_a21o_1 A2 A1 B1 X VDD VSS
.ends

* Black-box entry subcircuit for sg13g2_buf_2 abstract view
.subckt sg13g2_buf_2 A X VDD VSS
.ends

* Black-box entry subcircuit for sg13g2_buf_1 abstract view
.subckt sg13g2_buf_1 A X VDD VSS
.ends

* Black-box entry subcircuit for sg13g2_a22oi_1 abstract view
.subckt sg13g2_a22oi_1 Y B1 B2 A2 A1 VDD VSS
.ends

* Black-box entry subcircuit for sg13g2_and2_1 abstract view
.subckt sg13g2_and2_1 A B X VDD VSS
.ends

* Black-box entry subcircuit for sg13g2_inv_4 abstract view
.subckt sg13g2_inv_4 A Y VDD VSS
.ends

* Black-box entry subcircuit for sg13g2_nor3_1 abstract view
.subckt sg13g2_nor3_1 A B C Y VDD VSS
.ends

* Black-box entry subcircuit for sg13g2_nor2_2 abstract view
.subckt sg13g2_nor2_2 A B Y VDD VSS
.ends

* Black-box entry subcircuit for sg13g2_and4_1 abstract view
.subckt sg13g2_and4_1 A B C D X VDD VSS
.ends

* Black-box entry subcircuit for sg13g2_nor4_1 abstract view
.subckt sg13g2_nor4_1 A B C D Y VDD VSS
.ends

* Black-box entry subcircuit for sg13g2_xnor2_1 abstract view
.subckt sg13g2_xnor2_1 Y A B VDD VSS
.ends

* Black-box entry subcircuit for sg13g2_inv_2 abstract view
.subckt sg13g2_inv_2 Y A VDD VSS
.ends

* Black-box entry subcircuit for sg13g2_nand4_1 abstract view
.subckt sg13g2_nand4_1 B C A Y VDD VSS D
.ends

* Black-box entry subcircuit for sg13g2_tielo abstract view
.subckt sg13g2_tielo VDD VSS L_LO
.ends

* Black-box entry subcircuit for sg13g2_and3_1 abstract view
.subckt sg13g2_and3_1 X A B C VDD VSS
.ends

* Black-box entry subcircuit for sg13g2_a21oi_2 abstract view
.subckt sg13g2_a21oi_2 VSS VDD B1 Y A2 A1
.ends

* Black-box entry subcircuit for sg13g2_inv_8 abstract view
.subckt sg13g2_inv_8 Y A VDD VSS
.ends

* Black-box entry subcircuit for sg13g2_nand2b_2 abstract view
.subckt sg13g2_nand2b_2 Y B VDD VSS A_N
.ends

* Black-box entry subcircuit for sg13g2_or4_1 abstract view
.subckt sg13g2_or4_1 A B C D X VDD VSS
.ends

.subckt heichips25_top_sorter VGND VPWR clk ena rst_n ui_in[0] ui_in[1] ui_in[2] ui_in[3]
+ ui_in[4] ui_in[5] ui_in[6] ui_in[7] uio_in[0] uio_in[1] uio_in[2] uio_in[3] uio_in[4]
+ uio_in[5] uio_in[6] uio_in[7] uio_oe[0] uio_oe[1] uio_oe[2] uio_oe[3] uio_oe[4]
+ uio_oe[5] uio_oe[6] uio_oe[7] uio_out[0] uio_out[1] uio_out[2] uio_out[3] uio_out[4]
+ uio_out[5] uio_out[6] uio_out[7] uo_out[0] uo_out[1] uo_out[2] uo_out[3] uo_out[4]
+ uo_out[5] uo_out[6] uo_out[7]
XFILLER_39_277 VPWR VGND sg13g2_fill_2
XFILLER_28_918 VPWR VGND sg13g2_fill_2
X_7963_ net191 VGND VPWR _0097_ s0.valid_out\[0\][0] clknet_leaf_10_clk sg13g2_dfrbpq_1
X_6914_ VGND VPWR _2719_ _2721_ _2724_ net1679 sg13g2_a21oi_1
X_7894_ net115 VGND VPWR _0028_ s0.data_out\[6\]\[0\] clknet_leaf_6_clk sg13g2_dfrbpq_2
XFILLER_22_133 VPWR VGND sg13g2_fill_2
X_6845_ _2654_ VPWR _2655_ VGND net1266 _3523_ sg13g2_o21ai_1
XFILLER_35_494 VPWR VGND sg13g2_decap_4
X_3988_ VPWR _3364_ net416 VGND sg13g2_inv_1
X_6776_ _2598_ net1176 _2597_ VPWR VGND sg13g2_nand2_1
XFILLER_10_306 VPWR VGND sg13g2_decap_8
XFILLER_11_818 VPWR VGND sg13g2_fill_1
XFILLER_11_829 VPWR VGND sg13g2_decap_4
X_5727_ _1652_ net1409 net612 VPWR VGND sg13g2_nand2_1
X_5658_ net1425 VPWR _1594_ VGND _1535_ _1593_ sg13g2_o21ai_1
X_4609_ VGND VPWR net1526 _0639_ _0642_ _0641_ sg13g2_a21oi_1
X_5589_ _1526_ net1419 net702 VPWR VGND sg13g2_nand2_1
Xhold351 s0.data_out\[10\]\[6\] VPWR VGND net720 sg13g2_dlygate4sd3_1
Xhold362 s0.data_out\[9\]\[6\] VPWR VGND net731 sg13g2_dlygate4sd3_1
X_7639__47 VPWR VGND net47 sg13g2_tiehi
Xhold340 s0.data_out\[19\]\[1\] VPWR VGND net709 sg13g2_dlygate4sd3_1
X_7328_ net1239 VPWR _3094_ VGND _3034_ _3093_ sg13g2_o21ai_1
Xhold395 s0.data_out\[23\]\[4\] VPWR VGND net764 sg13g2_dlygate4sd3_1
Xhold384 s0.data_out\[17\]\[6\] VPWR VGND net753 sg13g2_dlygate4sd3_1
Xhold373 s0.data_out\[16\]\[6\] VPWR VGND net742 sg13g2_dlygate4sd3_1
X_7259_ s0.data_out\[3\]\[7\] s0.data_out\[2\]\[7\] net1235 _3033_ VPWR VGND sg13g2_mux2_1
X_7887__123 VPWR VGND net123 sg13g2_tiehi
XFILLER_46_737 VPWR VGND sg13g2_decap_8
XFILLER_26_30 VPWR VGND sg13g2_fill_2
XFILLER_26_63 VPWR VGND sg13g2_decap_8
XFILLER_42_954 VPWR VGND sg13g2_decap_8
XFILLER_13_177 VPWR VGND sg13g2_fill_1
XFILLER_42_73 VPWR VGND sg13g2_fill_2
XFILLER_10_851 VPWR VGND sg13g2_fill_1
XFILLER_3_56 VPWR VGND sg13g2_fill_1
XFILLER_49_542 VPWR VGND sg13g2_decap_8
XFILLER_37_704 VPWR VGND sg13g2_fill_2
X_4960_ _0958_ net1481 net497 VPWR VGND sg13g2_nand2_1
XFILLER_17_450 VPWR VGND sg13g2_fill_2
XFILLER_17_483 VPWR VGND sg13g2_fill_1
XFILLER_18_995 VPWR VGND sg13g2_decap_8
X_4891_ _0900_ _0899_ net1500 VPWR VGND sg13g2_nand2b_1
X_6630_ VGND VPWR _2343_ _2463_ _2464_ net1294 sg13g2_a21oi_1
X_7803__213 VPWR VGND net213 sg13g2_tiehi
X_6561_ _3394_ _3512_ _2404_ VPWR VGND sg13g2_nor2_1
X_5512_ net1426 net1345 _1461_ VPWR VGND sg13g2_nor2b_1
X_6492_ s0.data_out\[8\]\[0\] s0.data_out\[9\]\[0\] net1315 _2338_ VPWR VGND sg13g2_mux2_1
X_5443_ net1429 _1389_ _1395_ VPWR VGND sg13g2_nor2_1
X_5374_ _1334_ _1332_ _1335_ VPWR VGND _1333_ sg13g2_nand3b_1
X_4325_ VGND VPWR _3372_ _0379_ _0121_ _0384_ sg13g2_a21oi_1
X_7113_ VPWR VGND _2897_ _2898_ _2890_ net1571 _2899_ _2883_ sg13g2_a221oi_1
XFILLER_47_18 VPWR VGND sg13g2_fill_1
X_4256_ _3620_ net1554 net491 VPWR VGND sg13g2_nand2_1
X_7044_ VGND VPWR _2842_ net1566 net378 sg13g2_or2_1
X_7810__206 VPWR VGND net206 sg13g2_tiehi
XFILLER_41_1024 VPWR VGND sg13g2_decap_4
X_4187_ VGND VPWR net1633 net1554 _3554_ _3553_ sg13g2_a21oi_1
X_7946_ net59 VGND VPWR net521 s0.data_out\[2\]\[4\] clknet_leaf_9_clk sg13g2_dfrbpq_2
X_7877_ net134 VGND VPWR net562 s0.data_out\[8\]\[7\] clknet_leaf_15_clk sg13g2_dfrbpq_2
XFILLER_24_965 VPWR VGND sg13g2_decap_8
X_6828_ VPWR _0022_ _2642_ VGND sg13g2_inv_1
X_6759_ VGND VPWR net1285 _2578_ _2581_ _2580_ sg13g2_a21oi_1
XFILLER_10_169 VPWR VGND sg13g2_fill_1
XFILLER_3_858 VPWR VGND sg13g2_decap_8
Xhold170 _0191_ VPWR VGND net539 sg13g2_dlygate4sd3_1
Xhold192 s0.data_out\[8\]\[7\] VPWR VGND net561 sg13g2_dlygate4sd3_1
Xfanout1604 net1605 net1604 VPWR VGND sg13g2_buf_8
Xfanout1615 net1616 net1615 VPWR VGND sg13g2_buf_8
Xhold181 _0337_ VPWR VGND net550 sg13g2_dlygate4sd3_1
Xfanout1648 net1649 net1648 VPWR VGND sg13g2_buf_8
Xfanout1637 net1638 net1637 VPWR VGND sg13g2_buf_8
Xfanout1626 net1627 net1626 VPWR VGND sg13g2_buf_8
Xfanout1659 net1662 net1659 VPWR VGND sg13g2_buf_8
XFILLER_18_258 VPWR VGND sg13g2_fill_1
XFILLER_26_291 VPWR VGND sg13g2_fill_1
XFILLER_42_762 VPWR VGND sg13g2_fill_2
XFILLER_14_442 VPWR VGND sg13g2_fill_1
XFILLER_14_497 VPWR VGND sg13g2_fill_2
XFILLER_30_979 VPWR VGND sg13g2_decap_8
XFILLER_6_696 VPWR VGND sg13g2_fill_2
XFILLER_38_4 VPWR VGND sg13g2_fill_1
X_5090_ VGND VPWR _1075_ _1074_ net1697 sg13g2_or2_1
X_4110_ VPWR _3486_ net624 VGND sg13g2_inv_1
X_4041_ VPWR _3417_ net559 VGND sg13g2_inv_1
X_7800_ net216 VGND VPWR _0278_ s0.valid_out\[13\][0] clknet_leaf_21_clk sg13g2_dfrbpq_2
XFILLER_37_578 VPWR VGND sg13g2_fill_2
X_5992_ _1892_ VPWR _1893_ VGND net1389 _3484_ sg13g2_o21ai_1
X_4943_ net1483 _0825_ _0943_ VPWR VGND sg13g2_nor2_1
XFILLER_17_291 VPWR VGND sg13g2_fill_1
X_7731_ net291 VGND VPWR _0209_ s0.data_out\[19\]\[0\] clknet_leaf_27_clk sg13g2_dfrbpq_2
X_7662_ net366 VGND VPWR _0140_ s0.data_out\[25\]\[3\] clknet_leaf_1_clk sg13g2_dfrbpq_1
X_4874_ net1663 _0880_ _0883_ VPWR VGND sg13g2_nor2_1
X_6613_ _2447_ s0.data_out\[7\]\[1\] net1301 VPWR VGND sg13g2_nand2b_1
X_7593_ _3393_ net570 net1214 _3331_ VPWR VGND sg13g2_nand3_1
X_6544_ _2387_ _2388_ _2389_ _2390_ VPWR VGND sg13g2_or3_1
X_7955__308 VPWR VGND net308 sg13g2_tiehi
X_6475_ net1295 net1351 _2321_ VPWR VGND sg13g2_nor2b_1
X_5426_ net1624 _1348_ _1381_ VPWR VGND sg13g2_nor2_1
X_7738__284 VPWR VGND net284 sg13g2_tiehi
XFILLER_0_817 VPWR VGND sg13g2_decap_8
X_5357_ _1318_ net1444 s0.data_out\[17\]\[6\] VPWR VGND sg13g2_nand2_1
X_4308_ net1558 VPWR _0370_ VGND _3610_ _0369_ sg13g2_o21ai_1
X_5288_ net1203 _3461_ _1258_ VPWR VGND sg13g2_nor2_1
X_4239_ _3601_ net1544 _3602_ _3603_ VPWR VGND sg13g2_a21o_1
X_7027_ VGND VPWR net1259 _2822_ _2825_ _2824_ sg13g2_a21oi_1
XFILLER_28_501 VPWR VGND sg13g2_fill_1
X_7884__126 VPWR VGND net126 sg13g2_tiehi
X_7929_ net77 VGND VPWR _0063_ s0.shift_out\[3\][0] clknet_leaf_8_clk sg13g2_dfrbpq_2
XFILLER_11_456 VPWR VGND sg13g2_fill_1
XFILLER_7_449 VPWR VGND sg13g2_fill_1
XFILLER_23_97 VPWR VGND sg13g2_fill_2
XFILLER_48_1019 VPWR VGND sg13g2_decap_8
Xfanout1423 net1424 net1423 VPWR VGND sg13g2_buf_2
Xfanout1412 net1413 net1412 VPWR VGND sg13g2_buf_8
Xfanout1401 net1402 net1401 VPWR VGND sg13g2_buf_8
Xfanout1456 net820 net1456 VPWR VGND sg13g2_buf_8
Xfanout1445 net1446 net1445 VPWR VGND sg13g2_buf_8
Xfanout1434 net1435 net1434 VPWR VGND sg13g2_buf_1
Xfanout1467 s0.valid_out\[19\][0] net1467 VPWR VGND sg13g2_buf_8
Xfanout1489 net1490 net1489 VPWR VGND sg13g2_buf_8
Xfanout1478 net1481 net1478 VPWR VGND sg13g2_buf_8
XFILLER_47_843 VPWR VGND sg13g2_decap_8
X_7800__216 VPWR VGND net216 sg13g2_tiehi
XFILLER_9_99 VPWR VGND sg13g2_fill_1
X_4590_ _0621_ net1510 _0622_ _0623_ VPWR VGND sg13g2_a21o_1
XFILLER_30_776 VPWR VGND sg13g2_fill_2
XFILLER_7_983 VPWR VGND sg13g2_decap_8
X_6260_ _2136_ _2133_ _2137_ VPWR VGND _2135_ sg13g2_nand3b_1
X_6191_ _2072_ VPWR _2073_ VGND net1740 net723 sg13g2_o21ai_1
XFILLER_9_1002 VPWR VGND sg13g2_decap_8
X_5211_ VGND VPWR _1184_ _1183_ net1697 sg13g2_or2_1
X_5142_ net1457 net1340 _1127_ VPWR VGND sg13g2_nor2b_1
XFILLER_29_0 VPWR VGND sg13g2_fill_1
X_5073_ _1060_ VPWR _1061_ VGND net1473 _0941_ sg13g2_o21ai_1
X_4024_ VPWR _3400_ net472 VGND sg13g2_inv_1
X_5975_ s0.data_out\[12\]\[0\] s0.data_out\[13\]\[0\] net1397 _1876_ VPWR VGND sg13g2_mux2_1
X_7714_ net310 VGND VPWR _0192_ s0.genblk1\[20\].modules.bubble clknet_leaf_34_clk
+ sg13g2_dfrbpq_1
X_4926_ VPWR _0177_ _0929_ VGND sg13g2_inv_1
X_7645_ net40 VGND VPWR _0123_ s0.genblk1\[25\].modules.bubble clknet_leaf_43_clk
+ sg13g2_dfrbpq_1
X_4857_ _0865_ VPWR _0866_ VGND _0856_ _0857_ sg13g2_o21ai_1
X_7576_ net1720 VPWR _3317_ VGND net1214 net1209 sg13g2_o21ai_1
X_6527_ _2373_ net1309 _2372_ VPWR VGND sg13g2_nand2b_1
XFILLER_5_909 VPWR VGND sg13g2_decap_8
X_4788_ _0805_ VPWR _0806_ VGND net1728 net619 sg13g2_o21ai_1
X_6458_ _0331_ _2306_ _2307_ _3501_ net1610 VPWR VGND sg13g2_a22oi_1
X_6389_ _2245_ net1311 _2246_ _2247_ VPWR VGND sg13g2_a21o_1
XFILLER_0_603 VPWR VGND sg13g2_decap_8
X_5409_ _1367_ VPWR _1368_ VGND net1743 net808 sg13g2_o21ai_1
X_7751__270 VPWR VGND net270 sg13g2_tiehi
XFILLER_29_821 VPWR VGND sg13g2_fill_1
XFILLER_28_375 VPWR VGND sg13g2_fill_1
XFILLER_44_835 VPWR VGND sg13g2_fill_1
XFILLER_16_559 VPWR VGND sg13g2_fill_2
XFILLER_12_743 VPWR VGND sg13g2_decap_4
XFILLER_34_85 VPWR VGND sg13g2_fill_2
XFILLER_4_920 VPWR VGND sg13g2_decap_8
XFILLER_4_997 VPWR VGND sg13g2_decap_8
Xfanout1220 net529 net1220 VPWR VGND sg13g2_buf_8
Xfanout1231 s0.shift_out\[2\][0] net1231 VPWR VGND sg13g2_buf_2
Xfanout1264 net1265 net1264 VPWR VGND sg13g2_buf_1
Xfanout1253 net1257 net1253 VPWR VGND sg13g2_buf_8
Xfanout1242 net1243 net1242 VPWR VGND sg13g2_buf_8
Xfanout1297 net1299 net1297 VPWR VGND sg13g2_buf_2
Xfanout1286 net1288 net1286 VPWR VGND sg13g2_buf_8
Xfanout1275 net1277 net1275 VPWR VGND sg13g2_buf_2
XFILLER_22_518 VPWR VGND sg13g2_fill_2
X_5760_ VGND VPWR net1404 _1683_ _1685_ _1684_ sg13g2_a21oi_1
X_7728__294 VPWR VGND net294 sg13g2_tiehi
X_4711_ _0732_ net1503 s0.data_out\[22\]\[2\] VPWR VGND sg13g2_nand2_1
X_5691_ net1417 VPWR _1619_ VGND net1645 net1405 sg13g2_o21ai_1
X_7430_ VPWR _0078_ _3188_ VGND sg13g2_inv_1
X_4642_ net1688 _0642_ _0675_ VPWR VGND sg13g2_nor2_1
X_4573_ net1509 _0603_ _0609_ VPWR VGND sg13g2_nor2_1
X_7361_ s0.data_out\[1\]\[0\] s0.data_out\[2\]\[0\] net1236 _3123_ VPWR VGND sg13g2_mux2_1
X_6312_ _2181_ net1739 _2182_ VPWR VGND _2124_ sg13g2_nand3b_1
X_7292_ VGND VPWR _3051_ _3064_ _3066_ _3065_ sg13g2_a21oi_1
X_6243_ s0.data_out\[11\]\[6\] s0.data_out\[10\]\[6\] net1363 _2120_ VPWR VGND sg13g2_mux2_1
X_6174_ _0295_ _2058_ _2059_ _3490_ net1611 VPWR VGND sg13g2_a22oi_1
X_5125_ _1108_ net1457 _1109_ _1110_ VPWR VGND sg13g2_a21o_1
X_7735__287 VPWR VGND net287 sg13g2_tiehi
XFILLER_29_106 VPWR VGND sg13g2_fill_1
X_5056_ net1468 net509 _1048_ VPWR VGND sg13g2_and2_1
X_4007_ net1366 _3383_ VPWR VGND sg13g2_inv_4
X_7881__129 VPWR VGND net129 sg13g2_tiehi
XFILLER_38_1007 VPWR VGND sg13g2_decap_8
X_5958_ _1858_ VPWR _1859_ VGND net1386 _3486_ sg13g2_o21ai_1
X_4909_ net1487 s0.data_out\[21\]\[1\] _0916_ VPWR VGND sg13g2_and2_1
X_5889_ _1802_ _3381_ _1801_ VPWR VGND sg13g2_nand2_1
X_7628_ net1721 net447 _3358_ VPWR VGND sg13g2_nor2_1
X_7559_ VPWR _0092_ _3303_ VGND sg13g2_inv_1
XFILLER_5_728 VPWR VGND sg13g2_fill_1
XFILLER_1_901 VPWR VGND sg13g2_decap_8
XFILLER_20_87 VPWR VGND sg13g2_decap_4
XFILLER_1_978 VPWR VGND sg13g2_decap_8
XFILLER_49_927 VPWR VGND sg13g2_decap_8
Xhold30 _0024_ VPWR VGND net399 sg13g2_dlygate4sd3_1
Xhold41 _0157_ VPWR VGND net410 sg13g2_dlygate4sd3_1
Xhold63 _0436_ VPWR VGND net432 sg13g2_dlygate4sd3_1
Xhold52 s0.was_valid_out\[2\][0] VPWR VGND net421 sg13g2_dlygate4sd3_1
Xhold74 s0.data_out\[10\]\[3\] VPWR VGND net443 sg13g2_dlygate4sd3_1
Xhold96 _0127_ VPWR VGND net465 sg13g2_dlygate4sd3_1
XFILLER_17_813 VPWR VGND sg13g2_fill_2
Xhold85 s0.shift_out\[4\][0] VPWR VGND net454 sg13g2_dlygate4sd3_1
XFILLER_44_632 VPWR VGND sg13g2_decap_4
XFILLER_44_654 VPWR VGND sg13g2_fill_1
XFILLER_43_131 VPWR VGND sg13g2_fill_1
XFILLER_16_367 VPWR VGND sg13g2_fill_1
XFILLER_44_687 VPWR VGND sg13g2_fill_2
XFILLER_31_315 VPWR VGND sg13g2_fill_2
XFILLER_31_348 VPWR VGND sg13g2_fill_2
XFILLER_6_45 VPWR VGND sg13g2_fill_2
XFILLER_39_448 VPWR VGND sg13g2_fill_2
X_7689__337 VPWR VGND net337 sg13g2_tiehi
X_6930_ net1270 VPWR _2738_ VGND _2656_ _2737_ sg13g2_o21ai_1
X_6861_ VGND VPWR net1261 _2669_ _2671_ _2670_ sg13g2_a21oi_1
X_6792_ _2608_ VPWR _2614_ VGND _2600_ _2610_ sg13g2_o21ai_1
XFILLER_23_838 VPWR VGND sg13g2_fill_1
X_5812_ net1404 s0.data_out\[14\]\[6\] _1730_ VPWR VGND sg13g2_and2_1
X_5743_ VGND VPWR _1550_ _1667_ _1668_ net1417 sg13g2_a21oi_1
X_5674_ net1415 net777 _1606_ VPWR VGND sg13g2_and2_1
X_4625_ _0658_ _0657_ net1660 _0650_ net1650 VPWR VGND sg13g2_a22oi_1
X_7741__280 VPWR VGND net280 sg13g2_tiehi
X_7413_ _3100_ VPWR _3175_ VGND _3151_ _3153_ sg13g2_o21ai_1
X_7344_ s0.data_out\[2\]\[2\] s0.data_out\[1\]\[2\] net1226 _3106_ VPWR VGND sg13g2_mux2_1
X_4556_ _0594_ VPWR _0595_ VGND net1725 net774 sg13g2_o21ai_1
X_4487_ net1520 net1328 _0532_ VPWR VGND sg13g2_nor2b_1
X_7275_ net1668 _3048_ _3049_ VPWR VGND sg13g2_nor2_1
X_6226_ net1321 net1358 _2103_ VPWR VGND sg13g2_nor2b_1
X_6157_ _2023_ _2045_ _2046_ VPWR VGND sg13g2_nor2b_1
X_5108_ net1459 net1168 _1093_ VPWR VGND sg13g2_nor2_1
XFILLER_39_971 VPWR VGND sg13g2_decap_8
X_6088_ _1975_ net1367 _1976_ _1977_ VPWR VGND sg13g2_a21o_1
XFILLER_38_492 VPWR VGND sg13g2_fill_1
XFILLER_38_470 VPWR VGND sg13g2_fill_2
X_5039_ _1034_ VPWR _1035_ VGND net1178 _1033_ sg13g2_o21ai_1
XFILLER_25_120 VPWR VGND sg13g2_fill_2
XFILLER_15_87 VPWR VGND sg13g2_fill_1
XFILLER_31_53 VPWR VGND sg13g2_fill_1
Xoutput7 net7 uo_out[4] VPWR VGND sg13g2_buf_1
XFILLER_49_724 VPWR VGND sg13g2_decap_8
XFILLER_0_252 VPWR VGND sg13g2_decap_4
XFILLER_1_775 VPWR VGND sg13g2_decap_8
XFILLER_48_245 VPWR VGND sg13g2_fill_2
XFILLER_45_963 VPWR VGND sg13g2_decap_8
XFILLER_16_120 VPWR VGND sg13g2_fill_1
X_4410_ net1581 _0398_ _0465_ VPWR VGND sg13g2_nor2_1
X_5390_ net1674 _1349_ _1351_ VPWR VGND sg13g2_nor2_1
X_7695__330 VPWR VGND net330 sg13g2_tiehi
X_4341_ VGND VPWR _3572_ _0397_ _0398_ net1552 sg13g2_a21oi_1
X_7648__37 VPWR VGND net37 sg13g2_tiehi
XFILLER_28_1006 VPWR VGND sg13g2_decap_8
X_4272_ _3635_ VPWR _3636_ VGND net1677 _3633_ sg13g2_o21ai_1
X_7060_ net1259 VPWR _2854_ VGND _2795_ _2853_ sg13g2_o21ai_1
X_6011_ s0.data_out\[13\]\[6\] s0.data_out\[12\]\[6\] net1389 _1912_ VPWR VGND sg13g2_mux2_1
X_7962_ net217 VGND VPWR net508 s0.was_valid_out\[0\][0] clknet_leaf_10_clk sg13g2_dfrbpq_1
X_6913_ _2723_ _2714_ _2722_ VPWR VGND sg13g2_nand2_1
X_7893_ net116 VGND VPWR _0027_ s0.shift_out\[6\][0] clknet_leaf_16_clk sg13g2_dfrbpq_1
XFILLER_35_451 VPWR VGND sg13g2_fill_1
XFILLER_35_484 VPWR VGND sg13g2_fill_1
X_6844_ _2654_ net1266 net752 VPWR VGND sg13g2_nand2_1
X_3987_ VPWR _3363_ net398 VGND sg13g2_inv_1
X_6775_ s0.data_out\[6\]\[4\] s0.data_out\[7\]\[4\] net1291 _2597_ VPWR VGND sg13g2_mux2_1
X_5726_ net1707 _1634_ _1651_ VPWR VGND sg13g2_nor2_1
X_5657_ net1412 s0.data_out\[15\]\[0\] _1593_ VPWR VGND sg13g2_and2_1
X_4608_ VGND VPWR _0519_ _0640_ _0641_ net1526 sg13g2_a21oi_1
X_5588_ net1697 _1524_ _1525_ VPWR VGND sg13g2_nor2_1
Xhold330 _0153_ VPWR VGND net699 sg13g2_dlygate4sd3_1
X_4539_ net1522 s0.data_out\[24\]\[2\] _0581_ VPWR VGND sg13g2_and2_1
Xhold341 _0210_ VPWR VGND net710 sg13g2_dlygate4sd3_1
Xhold352 s0.data_out\[2\]\[0\] VPWR VGND net721 sg13g2_dlygate4sd3_1
X_7327_ net1189 _3538_ _3093_ VPWR VGND sg13g2_nor2_1
Xhold385 _1504_ VPWR VGND net754 sg13g2_dlygate4sd3_1
Xhold374 _1615_ VPWR VGND net743 sg13g2_dlygate4sd3_1
Xhold363 s0.data_out\[13\]\[0\] VPWR VGND net732 sg13g2_dlygate4sd3_1
Xhold396 s0.data_out\[15\]\[3\] VPWR VGND net765 sg13g2_dlygate4sd3_1
X_7258_ _3032_ net1236 net568 VPWR VGND sg13g2_nand2_1
X_6209_ net388 net1739 _0303_ VPWR VGND sg13g2_and2_1
X_7189_ VGND VPWR net1173 _2924_ _2970_ net1586 sg13g2_a21oi_1
XFILLER_46_716 VPWR VGND sg13g2_decap_8
XFILLER_26_20 VPWR VGND sg13g2_fill_1
XFILLER_27_985 VPWR VGND sg13g2_decap_8
Xclkbuf_3_6__f_clk clknet_0_clk clknet_3_6__leaf_clk VPWR VGND sg13g2_buf_8
XFILLER_42_933 VPWR VGND sg13g2_decap_8
XFILLER_5_344 VPWR VGND sg13g2_fill_2
XFILLER_1_550 VPWR VGND sg13g2_fill_1
XFILLER_49_521 VPWR VGND sg13g2_decap_8
XFILLER_49_598 VPWR VGND sg13g2_decap_8
XFILLER_3_1019 VPWR VGND sg13g2_decap_8
XFILLER_36_259 VPWR VGND sg13g2_fill_2
XFILLER_45_771 VPWR VGND sg13g2_decap_8
XFILLER_18_974 VPWR VGND sg13g2_decap_8
X_4890_ s0.data_out\[21\]\[4\] s0.data_out\[22\]\[4\] net1506 _0899_ VPWR VGND sg13g2_mux2_1
XFILLER_33_988 VPWR VGND sg13g2_decap_8
X_6560_ _0337_ _2402_ _2403_ _3506_ net1608 VPWR VGND sg13g2_a22oi_1
XFILLER_32_498 VPWR VGND sg13g2_fill_2
X_5511_ _1457_ _1459_ net1674 _1460_ VPWR VGND sg13g2_nand3_1
X_6491_ _2337_ net1305 _2336_ VPWR VGND sg13g2_nand2b_1
X_5442_ _1391_ VPWR _1394_ VGND s0.was_valid_out\[16\][0] net1434 sg13g2_o21ai_1
X_5373_ VGND VPWR _1334_ _1331_ net1656 sg13g2_or2_1
X_4324_ net1714 VPWR _0384_ VGND _0381_ _0383_ sg13g2_o21ai_1
X_7112_ VGND VPWR _2887_ _2889_ _2898_ net1701 sg13g2_a21oi_1
X_7043_ _2839_ _2840_ _2841_ VPWR VGND sg13g2_nor2_1
XFILLER_41_1003 VPWR VGND sg13g2_decap_8
X_4255_ net1558 _3617_ _3618_ _3619_ VPWR VGND sg13g2_nor3_1
X_4186_ net1559 VPWR _3553_ VGND net1639 net1544 sg13g2_o21ai_1
X_7945_ net60 VGND VPWR net736 s0.data_out\[2\]\[3\] clknet_leaf_12_clk sg13g2_dfrbpq_1
XFILLER_36_771 VPWR VGND sg13g2_fill_2
X_7876_ net135 VGND VPWR net609 s0.data_out\[8\]\[6\] clknet_leaf_15_clk sg13g2_dfrbpq_2
XFILLER_36_793 VPWR VGND sg13g2_fill_1
X_6827_ _2641_ VPWR _2642_ VGND net1729 net801 sg13g2_o21ai_1
X_6758_ VGND VPWR _2474_ _2579_ _2580_ net1285 sg13g2_a21oi_1
X_5709_ VGND VPWR net1414 _1631_ _1634_ _1633_ sg13g2_a21oi_1
X_6689_ net1294 VPWR _2519_ VGND _2461_ _2518_ sg13g2_o21ai_1
XFILLER_3_826 VPWR VGND sg13g2_decap_8
Xhold160 s0.shift_out\[1\][0] VPWR VGND net529 sg13g2_dlygate4sd3_1
Xhold171 s0.data_out\[12\]\[7\] VPWR VGND net540 sg13g2_dlygate4sd3_1
Xhold193 _0011_ VPWR VGND net562 sg13g2_dlygate4sd3_1
Xfanout1605 net1616 net1605 VPWR VGND sg13g2_buf_8
Xhold182 s0.data_out\[11\]\[2\] VPWR VGND net551 sg13g2_dlygate4sd3_1
Xfanout1638 net1 net1638 VPWR VGND sg13g2_buf_8
Xfanout1649 net1652 net1649 VPWR VGND sg13g2_buf_8
Xfanout1616 net1632 net1616 VPWR VGND sg13g2_buf_8
Xfanout1627 net1628 net1627 VPWR VGND sg13g2_buf_8
X_7635__51 VPWR VGND net51 sg13g2_tiehi
XFILLER_46_502 VPWR VGND sg13g2_fill_1
XFILLER_46_546 VPWR VGND sg13g2_fill_1
XFILLER_26_270 VPWR VGND sg13g2_fill_1
XFILLER_18_1016 VPWR VGND sg13g2_decap_8
XFILLER_18_1027 VPWR VGND sg13g2_fill_2
XFILLER_6_642 VPWR VGND sg13g2_fill_1
XFILLER_5_130 VPWR VGND sg13g2_decap_8
X_7692__333 VPWR VGND net333 sg13g2_tiehi
XFILLER_25_1009 VPWR VGND sg13g2_decap_8
X_4040_ VPWR _3416_ net621 VGND sg13g2_inv_1
XFILLER_25_719 VPWR VGND sg13g2_decap_4
X_5991_ _1892_ net1387 s0.data_out\[12\]\[4\] VPWR VGND sg13g2_nand2_1
X_4942_ _0940_ _0941_ _0942_ VPWR VGND sg13g2_nor2_2
X_7730_ net292 VGND VPWR _0208_ s0.shift_out\[19\][0] clknet_leaf_36_clk sg13g2_dfrbpq_2
X_7661_ net367 VGND VPWR _0139_ s0.data_out\[25\]\[2\] clknet_leaf_4_clk sg13g2_dfrbpq_2
X_4873_ VPWR _0882_ _0881_ VGND sg13g2_inv_1
XFILLER_21_925 VPWR VGND sg13g2_fill_2
X_6612_ _2444_ net1282 _2445_ _2446_ VPWR VGND sg13g2_a21o_1
X_7592_ _3330_ net1208 net1356 VPWR VGND sg13g2_nand2_1
XFILLER_20_457 VPWR VGND sg13g2_fill_1
X_7877__134 VPWR VGND net134 sg13g2_tiehi
X_6543_ net1691 _2349_ _2389_ VPWR VGND sg13g2_nor2_1
X_6474_ s0.data_out\[9\]\[2\] s0.data_out\[8\]\[2\] net1301 _2320_ VPWR VGND sg13g2_mux2_1
X_5425_ net1450 VPWR _1380_ VGND _1345_ _1379_ sg13g2_o21ai_1
X_5356_ _1316_ VPWR _1317_ VGND net1573 _1291_ sg13g2_o21ai_1
X_4307_ net1544 s0.data_out\[26\]\[6\] _0369_ VPWR VGND sg13g2_and2_1
X_5287_ _0210_ _1256_ _1257_ _3456_ net1619 VPWR VGND sg13g2_a22oi_1
X_4238_ net1544 net1328 _3602_ VPWR VGND sg13g2_nor2b_1
X_7026_ VGND VPWR _2716_ _2823_ _2824_ net1263 sg13g2_a21oi_1
XFILLER_28_513 VPWR VGND sg13g2_fill_1
X_7632__54 VPWR VGND net54 sg13g2_tiehi
X_4169_ s0.data_out\[27\]\[0\] net1166 _3545_ VPWR VGND sg13g2_nor2_1
X_7928_ net78 VGND VPWR _0062_ s0.genblk1\[2\].modules.bubble clknet_leaf_8_clk sg13g2_dfrbpq_1
X_7859_ net153 VGND VPWR net550 s0.data_out\[9\]\[1\] clknet_leaf_38_clk sg13g2_dfrbpq_2
XFILLER_23_76 VPWR VGND sg13g2_fill_2
XFILLER_20_991 VPWR VGND sg13g2_decap_8
XFILLER_3_601 VPWR VGND sg13g2_fill_2
Xfanout1413 net1414 net1413 VPWR VGND sg13g2_buf_2
Xfanout1402 net1403 net1402 VPWR VGND sg13g2_buf_8
Xfanout1457 net1460 net1457 VPWR VGND sg13g2_buf_8
Xfanout1446 net823 net1446 VPWR VGND sg13g2_buf_8
Xfanout1435 s0.valid_out\[16\][0] net1435 VPWR VGND sg13g2_buf_8
Xfanout1424 net1425 net1424 VPWR VGND sg13g2_buf_8
XFILLER_47_822 VPWR VGND sg13g2_decap_8
Xfanout1468 net1477 net1468 VPWR VGND sg13g2_buf_8
Xfanout1479 net1481 net1479 VPWR VGND sg13g2_buf_1
XFILLER_47_899 VPWR VGND sg13g2_decap_8
XFILLER_14_240 VPWR VGND sg13g2_fill_2
XFILLER_9_67 VPWR VGND sg13g2_fill_1
XFILLER_30_733 VPWR VGND sg13g2_decap_4
XFILLER_31_1013 VPWR VGND sg13g2_decap_8
XFILLER_7_962 VPWR VGND sg13g2_decap_8
XFILLER_11_991 VPWR VGND sg13g2_decap_8
X_5210_ VGND VPWR net1463 _1180_ _1183_ _1182_ sg13g2_a21oi_1
X_6190_ _2071_ net1741 _2072_ VPWR VGND _2011_ sg13g2_nand3b_1
X_5141_ s0.data_out\[20\]\[5\] s0.data_out\[19\]\[5\] net1464 _1126_ VPWR VGND sg13g2_mux2_1
X_5072_ _1060_ _1059_ _1058_ VPWR VGND sg13g2_nand2b_1
X_4023_ VPWR _3399_ net515 VGND sg13g2_inv_1
XFILLER_49_192 VPWR VGND sg13g2_fill_2
XFILLER_49_181 VPWR VGND sg13g2_fill_2
X_7713_ net311 VGND VPWR net539 s0.data_out\[21\]\[7\] clknet_leaf_35_clk sg13g2_dfrbpq_2
X_5974_ VGND VPWR net1378 _1873_ _1875_ _1874_ sg13g2_a21oi_1
X_4925_ _0928_ VPWR _0929_ VGND net1734 net411 sg13g2_o21ai_1
X_7644_ net41 VGND VPWR _0122_ s0.valid_out\[26\][0] clknet_leaf_1_clk sg13g2_dfrbpq_2
X_4856_ _0865_ _0864_ net1690 _0841_ net1699 VPWR VGND sg13g2_a22oi_1
XFILLER_20_221 VPWR VGND sg13g2_fill_2
X_7575_ VGND VPWR net507 _3393_ _3316_ net1640 sg13g2_a21oi_1
XFILLER_21_788 VPWR VGND sg13g2_fill_2
XFILLER_21_799 VPWR VGND sg13g2_fill_1
X_6526_ VGND VPWR net1298 _2370_ _2372_ _2371_ sg13g2_a21oi_1
X_4787_ _0804_ VPWR _0805_ VGND net1182 _0803_ sg13g2_o21ai_1
X_7890__120 VPWR VGND net120 sg13g2_tiehi
X_6457_ net1610 _2242_ _2307_ VPWR VGND sg13g2_nor2_1
X_6388_ net1312 net1335 _2246_ VPWR VGND sg13g2_nor2b_1
X_5408_ _1366_ VPWR _1367_ VGND net1203 _1365_ sg13g2_o21ai_1
X_5339_ s0.data_out\[18\]\[0\] s0.data_out\[17\]\[0\] net1443 _1300_ VPWR VGND sg13g2_mux2_1
XFILLER_0_659 VPWR VGND sg13g2_fill_1
X_7009_ VGND VPWR _2696_ _2806_ _2807_ net1258 sg13g2_a21oi_1
XFILLER_44_869 VPWR VGND sg13g2_decap_8
XFILLER_11_221 VPWR VGND sg13g2_fill_2
XFILLER_11_232 VPWR VGND sg13g2_fill_1
XFILLER_34_97 VPWR VGND sg13g2_fill_1
XFILLER_4_976 VPWR VGND sg13g2_decap_8
Xfanout1210 net1213 net1210 VPWR VGND sg13g2_buf_8
Xfanout1221 net1222 net1221 VPWR VGND sg13g2_buf_2
Xfanout1232 net1233 net1232 VPWR VGND sg13g2_buf_8
Xfanout1254 net1257 net1254 VPWR VGND sg13g2_buf_1
Xfanout1243 net1244 net1243 VPWR VGND sg13g2_buf_8
Xfanout1265 net480 net1265 VPWR VGND sg13g2_buf_8
Xfanout1298 net1299 net1298 VPWR VGND sg13g2_buf_8
Xfanout1287 net1288 net1287 VPWR VGND sg13g2_buf_1
Xfanout1276 net1277 net1276 VPWR VGND sg13g2_buf_8
X_7867__144 VPWR VGND net144 sg13g2_tiehi
XFILLER_47_696 VPWR VGND sg13g2_decap_8
XFILLER_34_302 VPWR VGND sg13g2_fill_2
XFILLER_43_891 VPWR VGND sg13g2_decap_8
X_4710_ VPWR VGND _0730_ net1711 _0726_ net1705 _0731_ _0724_ sg13g2_a221oi_1
X_5690_ _0252_ _1617_ _1618_ _3466_ net1630 VPWR VGND sg13g2_a22oi_1
X_4641_ _0674_ _0673_ net1671 _0667_ net1679 VPWR VGND sg13g2_a22oi_1
XFILLER_30_574 VPWR VGND sg13g2_decap_4
X_4572_ VGND VPWR _0608_ _0607_ _0605_ sg13g2_or2_1
X_7360_ VGND VPWR net1217 _3120_ _3122_ _3121_ sg13g2_a21oi_1
X_6311_ net1369 VPWR _2181_ VGND _2121_ _2180_ sg13g2_o21ai_1
X_7874__137 VPWR VGND net137 sg13g2_tiehi
X_7291_ _2986_ VPWR _3065_ VGND _3039_ _3040_ sg13g2_o21ai_1
X_6242_ _2119_ net1362 net720 VPWR VGND sg13g2_nand2_1
XFILLER_6_291 VPWR VGND sg13g2_fill_1
XFILLER_41_0 VPWR VGND sg13g2_fill_2
X_6173_ net1611 _1979_ _2059_ VPWR VGND sg13g2_nor2_1
X_5124_ net1460 net1331 _1109_ VPWR VGND sg13g2_nor2b_1
X_5055_ VPWR _0188_ _1047_ VGND sg13g2_inv_1
X_4006_ VPWR _3382_ net1395 VGND sg13g2_inv_1
XFILLER_25_357 VPWR VGND sg13g2_fill_2
X_5957_ _1858_ net1386 net789 VPWR VGND sg13g2_nand2_1
XFILLER_40_349 VPWR VGND sg13g2_fill_1
X_4908_ VPWR _0173_ _0915_ VGND sg13g2_inv_1
X_7627_ net404 _3319_ net1721 _0106_ VPWR VGND sg13g2_mux2_1
X_5888_ _1691_ VPWR _1801_ VGND net1409 _3484_ sg13g2_o21ai_1
X_4839_ VGND VPWR _0718_ _0847_ _0848_ net1502 sg13g2_a21oi_1
X_7558_ _3302_ VPWR _3303_ VGND net1722 net714 sg13g2_o21ai_1
X_7489_ VGND VPWR net1211 _3237_ _3239_ _3238_ sg13g2_a21oi_1
X_6509_ _2355_ s0.data_out\[8\]\[7\] net1316 VPWR VGND sg13g2_nand2b_1
XFILLER_49_906 VPWR VGND sg13g2_decap_8
XFILLER_1_957 VPWR VGND sg13g2_decap_8
Xhold20 s0.genblk1\[21\].modules.bubble VPWR VGND net389 sg13g2_dlygate4sd3_1
Xhold31 s0.was_valid_out\[4\][0] VPWR VGND net400 sg13g2_dlygate4sd3_1
Xhold64 s0.data_out\[0\]\[3\] VPWR VGND net433 sg13g2_dlygate4sd3_1
Xhold42 s0.data_out\[22\]\[4\] VPWR VGND net411 sg13g2_dlygate4sd3_1
Xhold53 _0072_ VPWR VGND net422 sg13g2_dlygate4sd3_1
Xhold86 s0.was_valid_out\[9\][0] VPWR VGND net455 sg13g2_dlygate4sd3_1
XFILLER_21_1012 VPWR VGND sg13g2_decap_8
Xhold97 s0.data_out\[16\]\[3\] VPWR VGND net466 sg13g2_dlygate4sd3_1
XFILLER_28_140 VPWR VGND sg13g2_decap_4
XFILLER_29_641 VPWR VGND sg13g2_fill_2
XFILLER_29_663 VPWR VGND sg13g2_fill_2
Xhold75 _2115_ VPWR VGND net444 sg13g2_dlygate4sd3_1
XFILLER_16_302 VPWR VGND sg13g2_fill_2
XFILLER_31_305 VPWR VGND sg13g2_fill_1
XFILLER_32_839 VPWR VGND sg13g2_fill_1
XFILLER_43_198 VPWR VGND sg13g2_fill_1
XFILLER_4_762 VPWR VGND sg13g2_fill_2
XFILLER_39_427 VPWR VGND sg13g2_fill_2
XFILLER_13_4 VPWR VGND sg13g2_fill_2
X_6860_ net1261 net1349 _2670_ VPWR VGND sg13g2_nor2b_1
X_7880__130 VPWR VGND net130 sg13g2_tiehi
X_6791_ _2592_ _2608_ _2611_ _2612_ _2613_ VPWR VGND sg13g2_and4_1
X_5811_ VPWR _0262_ _1729_ VGND sg13g2_inv_1
XFILLER_35_699 VPWR VGND sg13g2_fill_2
X_5742_ _1667_ s0.data_out\[14\]\[7\] net1420 VPWR VGND sg13g2_nand2b_1