* NGSPICE file created from heichips25_top_sorter.ext - technology: ihp-sg13g2

* Black-box entry subcircuit for sg13g2_fill_2 abstract view
.subckt sg13g2_fill_2 VDD VSS
.ends

* Black-box entry subcircuit for sg13g2_decap_8 abstract view
.subckt sg13g2_decap_8 VDD VSS
.ends

* Black-box entry subcircuit for sg13g2_dfrbpq_1 abstract view
.subckt sg13g2_dfrbpq_1 RESET_B VSS VDD D Q CLK
.ends

* Black-box entry subcircuit for sg13g2_o21ai_1 abstract view
.subckt sg13g2_o21ai_1 B1 VDD Y VSS A1 A2
.ends

* Black-box entry subcircuit for sg13g2_nand2_1 abstract view
.subckt sg13g2_nand2_1 Y A B VDD VSS
.ends

* Black-box entry subcircuit for sg13g2_a21oi_1 abstract view
.subckt sg13g2_a21oi_1 VSS VDD A1 A2 Y B1
.ends

* Black-box entry subcircuit for sg13g2_dlygate4sd3_1 abstract view
.subckt sg13g2_dlygate4sd3_1 A VDD VSS X
.ends

* Black-box entry subcircuit for sg13g2_nor2b_1 abstract view
.subckt sg13g2_nor2b_1 A B_N Y VDD VSS
.ends

* Black-box entry subcircuit for sg13g2_fill_1 abstract view
.subckt sg13g2_fill_1 VDD VSS
.ends

* Black-box entry subcircuit for sg13g2_dfrbpq_2 abstract view
.subckt sg13g2_dfrbpq_2 RESET_B VSS VDD D Q CLK
.ends

* Black-box entry subcircuit for sg13g2_a21o_1 abstract view
.subckt sg13g2_a21o_1 A2 A1 B1 X VDD VSS
.ends

* Black-box entry subcircuit for sg13g2_inv_1 abstract view
.subckt sg13g2_inv_1 VDD Y A VSS
.ends

* Black-box entry subcircuit for sg13g2_or2_1 abstract view
.subckt sg13g2_or2_1 VSS VDD X B A
.ends

* Black-box entry subcircuit for sg13g2_tiehi abstract view
.subckt sg13g2_tiehi VDD VSS L_HI
.ends

* Black-box entry subcircuit for sg13g2_decap_4 abstract view
.subckt sg13g2_decap_4 VDD VSS
.ends

* Black-box entry subcircuit for sg13g2_nor2_1 abstract view
.subckt sg13g2_nor2_1 A B Y VDD VSS
.ends

* Black-box entry subcircuit for sg13g2_nand2b_1 abstract view
.subckt sg13g2_nand2b_1 Y B A_N VDD VSS
.ends

* Black-box entry subcircuit for sg13g2_mux2_1 abstract view
.subckt sg13g2_mux2_1 A0 A1 S X VDD VSS
.ends

* Black-box entry subcircuit for sg13g2_a22oi_1 abstract view
.subckt sg13g2_a22oi_1 Y B1 B2 A2 A1 VDD VSS
.ends

* Black-box entry subcircuit for sg13g2_buf_1 abstract view
.subckt sg13g2_buf_1 A X VDD VSS
.ends

* Black-box entry subcircuit for sg13g2_buf_8 abstract view
.subckt sg13g2_buf_8 A X VDD VSS
.ends

* Black-box entry subcircuit for sg13g2_nor3_1 abstract view
.subckt sg13g2_nor3_1 A B C Y VDD VSS
.ends

* Black-box entry subcircuit for sg13g2_a221oi_1 abstract view
.subckt sg13g2_a221oi_1 VDD VSS B2 C1 B1 A1 Y A2
.ends

* Black-box entry subcircuit for sg13g2_buf_2 abstract view
.subckt sg13g2_buf_2 A X VDD VSS
.ends

* Black-box entry subcircuit for sg13g2_nand3_1 abstract view
.subckt sg13g2_nand3_1 B C A Y VDD VSS
.ends

* Black-box entry subcircuit for sg13g2_and2_1 abstract view
.subckt sg13g2_and2_1 A B X VDD VSS
.ends

* Black-box entry subcircuit for sg13g2_nand3b_1 abstract view
.subckt sg13g2_nand3b_1 B C Y VDD VSS A_N
.ends

* Black-box entry subcircuit for sg13g2_inv_2 abstract view
.subckt sg13g2_inv_2 Y A VDD VSS
.ends

* Black-box entry subcircuit for sg13g2_nor4_1 abstract view
.subckt sg13g2_nor4_1 A B C D Y VDD VSS
.ends

* Black-box entry subcircuit for sg13g2_and3_1 abstract view
.subckt sg13g2_and3_1 X A B C VDD VSS
.ends

* Black-box entry subcircuit for sg13g2_or4_1 abstract view
.subckt sg13g2_or4_1 A B C D X VDD VSS
.ends

* Black-box entry subcircuit for sg13g2_xnor2_1 abstract view
.subckt sg13g2_xnor2_1 Y A B VDD VSS
.ends

* Black-box entry subcircuit for sg13g2_inv_4 abstract view
.subckt sg13g2_inv_4 A Y VDD VSS
.ends

* Black-box entry subcircuit for sg13g2_tielo abstract view
.subckt sg13g2_tielo VDD VSS L_LO
.ends

* Black-box entry subcircuit for sg13g2_inv_8 abstract view
.subckt sg13g2_inv_8 Y A VDD VSS
.ends

* Black-box entry subcircuit for sg13g2_nand4_1 abstract view
.subckt sg13g2_nand4_1 B C A Y VDD VSS D
.ends

* Black-box entry subcircuit for sg13g2_and4_1 abstract view
.subckt sg13g2_and4_1 A B C D X VDD VSS
.ends

* Black-box entry subcircuit for sg13g2_or3_1 abstract view
.subckt sg13g2_or3_1 A B C X VDD VSS
.ends

.subckt heichips25_top_sorter VGND VPWR clk ena rst_n ui_in[0] ui_in[1] ui_in[2] ui_in[3]
+ ui_in[4] ui_in[5] ui_in[6] ui_in[7] uio_in[0] uio_in[1] uio_in[2] uio_in[3] uio_in[4]
+ uio_in[5] uio_in[6] uio_in[7] uio_oe[0] uio_oe[1] uio_oe[2] uio_oe[3] uio_oe[4]
+ uio_oe[5] uio_oe[6] uio_oe[7] uio_out[0] uio_out[1] uio_out[2] uio_out[3] uio_out[4]
+ uio_out[5] uio_out[6] uio_out[7] uo_out[0] uo_out[1] uo_out[2] uo_out[3] uo_out[4]
+ uo_out[5] uo_out[6] uo_out[7]
XFILLER_39_277 VPWR VGND sg13g2_fill_2
XFILLER_36_951 VPWR VGND sg13g2_decap_8
XFILLER_35_1009 VPWR VGND sg13g2_decap_8
X_6776_ net189 VGND VPWR _0286_ s0.genblk1\[9\].modules.bubble clknet_leaf_21_clk
+ sg13g2_dfrbpq_1
XFILLER_23_678 VPWR VGND sg13g2_decap_8
X_3988_ _1547_ VPWR _1548_ VGND net1490 net618 sg13g2_o21ai_1
X_5727_ _0317_ VPWR _0318_ VGND net1012 _0316_ sg13g2_o21ai_1
XFILLER_10_328 VPWR VGND sg13g2_decap_8
X_5658_ _3052_ net1308 net527 VPWR VGND sg13g2_nand2_1
X_5589_ net1325 VPWR _2992_ VGND _2909_ _2991_ sg13g2_o21ai_1
X_4609_ VGND VPWR net997 _2047_ _2105_ net1370 sg13g2_a21oi_1
Xhold351 _0196_ VPWR VGND net671 sg13g2_dlygate4sd3_1
Xhold340 s0.data_out\[18\]\[0\] VPWR VGND net660 sg13g2_dlygate4sd3_1
Xhold362 s0.data_out\[6\]\[2\] VPWR VGND net682 sg13g2_dlygate4sd3_1
Xhold373 s0.data_out\[15\]\[6\] VPWR VGND net693 sg13g2_dlygate4sd3_1
Xhold384 s0.data_new_delayed\[4\] VPWR VGND net704 sg13g2_dlygate4sd3_1
XFILLER_19_918 VPWR VGND sg13g2_decap_8
XFILLER_26_461 VPWR VGND sg13g2_fill_2
XFILLER_42_943 VPWR VGND sg13g2_decap_8
XFILLER_9_104 VPWR VGND sg13g2_decap_8
XFILLER_14_689 VPWR VGND sg13g2_fill_2
XFILLER_49_520 VPWR VGND sg13g2_decap_8
XFILLER_1_582 VPWR VGND sg13g2_decap_8
XFILLER_49_597 VPWR VGND sg13g2_decap_8
XFILLER_36_269 VPWR VGND sg13g2_fill_2
XFILLER_18_973 VPWR VGND sg13g2_decap_8
XFILLER_33_921 VPWR VGND sg13g2_fill_2
X_4960_ net1037 net1157 _2423_ VPWR VGND sg13g2_nor2b_1
XFILLER_44_280 VPWR VGND sg13g2_fill_1
X_4891_ _2356_ VPWR _2357_ VGND net1051 _2242_ sg13g2_o21ai_1
X_3911_ _1477_ net1177 net477 VPWR VGND sg13g2_nand2_1
XFILLER_33_965 VPWR VGND sg13g2_decap_8
X_3842_ _1419_ VPWR _1420_ VGND net1484 net621 sg13g2_o21ai_1
X_6630_ net208 VGND VPWR _0140_ s0.data_out\[12\]\[4\] clknet_leaf_23_clk sg13g2_dfrbpq_2
X_6561_ net283 VGND VPWR _0071_ s0.data_out\[18\]\[6\] clknet_leaf_36_clk sg13g2_dfrbpq_2
X_5512_ _2916_ net1315 _2917_ _2918_ VPWR VGND sg13g2_a21o_1
X_3773_ _1352_ net1190 net422 VPWR VGND sg13g2_nand2_1
X_6492_ net61 VGND VPWR _0002_ s0.valid_out\[23\][0] clknet_leaf_0_clk sg13g2_dfrbpq_2
X_5443_ VPWR _2861_ net578 VGND sg13g2_inv_1
X_5374_ VPWR _2792_ net352 VGND sg13g2_inv_1
X_4325_ VGND VPWR _1848_ _1839_ net1412 sg13g2_or2_1
XFILLER_47_18 VPWR VGND sg13g2_decap_8
X_4256_ VPWR _0185_ _1784_ VGND sg13g2_inv_1
X_4187_ _1720_ net1116 _1721_ _1722_ VPWR VGND sg13g2_a21o_1
X_6680__154 VPWR VGND net154 sg13g2_tiehi
XFILLER_27_203 VPWR VGND sg13g2_decap_8
XFILLER_43_718 VPWR VGND sg13g2_fill_1
XFILLER_43_707 VPWR VGND sg13g2_decap_4
XFILLER_43_729 VPWR VGND sg13g2_fill_2
XFILLER_42_217 VPWR VGND sg13g2_fill_2
XFILLER_24_932 VPWR VGND sg13g2_decap_4
XFILLER_11_604 VPWR VGND sg13g2_decap_8
XFILLER_23_453 VPWR VGND sg13g2_decap_4
XFILLER_24_998 VPWR VGND sg13g2_decap_8
XFILLER_10_125 VPWR VGND sg13g2_fill_1
XFILLER_10_114 VPWR VGND sg13g2_fill_1
X_6759_ net69 VGND VPWR _0269_ s0.data_out\[2\]\[5\] clknet_leaf_9_clk sg13g2_dfrbpq_2
XFILLER_7_619 VPWR VGND sg13g2_decap_8
XFILLER_6_129 VPWR VGND sg13g2_fill_1
XFILLER_3_803 VPWR VGND sg13g2_decap_8
XFILLER_12_65 VPWR VGND sg13g2_decap_8
XFILLER_2_324 VPWR VGND sg13g2_fill_2
Xhold170 _0169_ VPWR VGND net490 sg13g2_dlygate4sd3_1
Xhold192 s0.data_out\[2\]\[7\] VPWR VGND net512 sg13g2_dlygate4sd3_1
Xhold181 s0.data_out\[6\]\[1\] VPWR VGND net501 sg13g2_dlygate4sd3_1
XFILLER_19_704 VPWR VGND sg13g2_decap_4
XFILLER_37_40 VPWR VGND sg13g2_fill_2
XFILLER_18_225 VPWR VGND sg13g2_fill_2
XFILLER_19_737 VPWR VGND sg13g2_decap_8
XFILLER_18_236 VPWR VGND sg13g2_decap_8
XFILLER_15_921 VPWR VGND sg13g2_fill_2
XFILLER_18_1015 VPWR VGND sg13g2_decap_8
XFILLER_30_935 VPWR VGND sg13g2_fill_1
XFILLER_30_968 VPWR VGND sg13g2_decap_8
X_6508__44 VPWR VGND net44 sg13g2_tiehi
XFILLER_5_140 VPWR VGND sg13g2_fill_1
XFILLER_10_692 VPWR VGND sg13g2_fill_2
X_5090_ _2535_ VPWR _2541_ VGND _2528_ _2538_ sg13g2_o21ai_1
XFILLER_25_1008 VPWR VGND sg13g2_decap_8
X_4110_ net1385 _1573_ _1655_ VPWR VGND sg13g2_nor2_1
X_4041_ _1588_ net1014 _1587_ VPWR VGND sg13g2_nand2_1
X_5992_ VGND VPWR net1003 _0445_ _0556_ _0555_ sg13g2_a21oi_1
X_4943_ _2406_ net580 net1058 VPWR VGND sg13g2_nand2b_1
XFILLER_24_239 VPWR VGND sg13g2_fill_1
XFILLER_21_957 VPWR VGND sg13g2_decap_8
X_6613_ net226 VGND VPWR _0123_ s0.genblk1\[12\].modules.bubble clknet_leaf_23_clk
+ sg13g2_dfrbpq_1
X_4874_ VPWR _0244_ _2343_ VGND sg13g2_inv_1
X_3825_ s0.data_out\[11\]\[5\] s0.data_out\[12\]\[5\] net1199 _1404_ VPWR VGND sg13g2_mux2_1
X_6544_ net301 VGND VPWR net696 s0.data_out\[19\]\[1\] clknet_leaf_35_clk sg13g2_dfrbpq_1
X_3756_ net1485 VPWR _1337_ VGND _1334_ _1336_ sg13g2_o21ai_1
X_6475_ net1241 VPWR _0992_ VGND _0934_ _0991_ sg13g2_o21ai_1
X_5426_ VPWR _2844_ net589 VGND sg13g2_inv_1
X_3687_ net1194 net1154 _1277_ VPWR VGND sg13g2_nor2b_1
XFILLER_0_817 VPWR VGND sg13g2_decap_8
X_5357_ VPWR _2775_ net640 VGND sg13g2_inv_1
X_5288_ net361 net1025 net1023 _2715_ VPWR VGND sg13g2_a21o_1
X_4308_ _1831_ _1830_ net1441 _1806_ net1446 VPWR VGND sg13g2_a22oi_1
X_4239_ net1000 _2852_ _1771_ VPWR VGND sg13g2_nor2_1
XFILLER_15_228 VPWR VGND sg13g2_decap_8
XFILLER_24_740 VPWR VGND sg13g2_fill_2
XFILLER_12_913 VPWR VGND sg13g2_decap_8
XFILLER_11_434 VPWR VGND sg13g2_fill_2
XFILLER_11_456 VPWR VGND sg13g2_decap_8
XFILLER_12_968 VPWR VGND sg13g2_decap_8
XFILLER_20_990 VPWR VGND sg13g2_decap_8
XFILLER_3_600 VPWR VGND sg13g2_fill_1
X_6505__47 VPWR VGND net47 sg13g2_tiehi
XFILLER_48_1019 VPWR VGND sg13g2_decap_8
X_6728__102 VPWR VGND net102 sg13g2_tiehi
XFILLER_3_677 VPWR VGND sg13g2_decap_8
XFILLER_2_132 VPWR VGND sg13g2_fill_1
Xfanout1412 net1415 net1412 VPWR VGND sg13g2_buf_1
XFILLER_2_176 VPWR VGND sg13g2_fill_1
Xfanout1401 ui_in[7] net1401 VPWR VGND sg13g2_buf_8
Xfanout1423 net1425 net1423 VPWR VGND sg13g2_buf_8
Xfanout1434 ui_in[4] net1434 VPWR VGND sg13g2_buf_8
Xfanout1445 net1446 net1445 VPWR VGND sg13g2_buf_8
Xfanout1456 net1457 net1456 VPWR VGND sg13g2_buf_8
XFILLER_48_94 VPWR VGND sg13g2_fill_2
XFILLER_48_83 VPWR VGND sg13g2_decap_8
Xfanout1489 net1492 net1489 VPWR VGND sg13g2_buf_1
Xfanout1467 net1469 net1467 VPWR VGND sg13g2_buf_8
Xfanout1478 net1483 net1478 VPWR VGND sg13g2_buf_8
XFILLER_47_843 VPWR VGND sg13g2_decap_8
XFILLER_0_79 VPWR VGND sg13g2_fill_1
XFILLER_21_209 VPWR VGND sg13g2_fill_1
X_4590_ VGND VPWR _2077_ _2079_ _2089_ net1430 sg13g2_a21oi_1
X_3610_ VPWR _0117_ net523 VGND sg13g2_inv_1
XFILLER_11_990 VPWR VGND sg13g2_decap_8
X_3541_ _1143_ net532 net1220 VPWR VGND sg13g2_nand2b_1
X_3472_ net1227 VPWR _1084_ VGND _1012_ _1083_ sg13g2_o21ai_1
X_6260_ net1238 net1172 _0797_ VPWR VGND sg13g2_nor2b_1
X_5211_ _2643_ VPWR _2650_ VGND _2644_ _2646_ sg13g2_o21ai_1
X_6191_ _0737_ _0738_ _0739_ _0740_ VPWR VGND sg13g2_nor3_1
X_5142_ net1346 _2577_ _0273_ VPWR VGND sg13g2_nor2_1
XFILLER_9_1024 VPWR VGND sg13g2_decap_4
XFILLER_29_0 VPWR VGND sg13g2_fill_2
XFILLER_38_821 VPWR VGND sg13g2_fill_1
X_5073_ VGND VPWR net1028 _2523_ _2524_ _2522_ sg13g2_a21oi_1
X_4024_ _1569_ net1124 _1570_ _1571_ VPWR VGND sg13g2_a21o_1
XFILLER_40_507 VPWR VGND sg13g2_fill_2
X_5975_ net1352 _0510_ _0543_ VPWR VGND sg13g2_nor2_1
XFILLER_21_721 VPWR VGND sg13g2_fill_1
X_4926_ net1037 net993 _2389_ VPWR VGND sg13g2_nor2_1
XFILLER_20_231 VPWR VGND sg13g2_fill_2
X_4857_ VPWR _0240_ _2330_ VGND sg13g2_inv_1
X_3808_ VGND VPWR net1195 _1384_ _1387_ _1386_ sg13g2_a21oi_1
X_6527_ net24 VGND VPWR _0037_ s0.was_valid_out\[20\][0] clknet_leaf_37_clk sg13g2_dfrbpq_1
X_4788_ _2263_ net400 net1067 VPWR VGND sg13g2_nand2b_1
X_3739_ net1015 _2831_ _1322_ VPWR VGND sg13g2_nor2_1
X_6458_ net1242 VPWR _0979_ VGND _0918_ _0978_ sg13g2_o21ai_1
X_5409_ VPWR _2827_ net532 VGND sg13g2_inv_1
X_6389_ VPWR VGND _0913_ net1459 _0911_ net1456 _0914_ _0907_ sg13g2_a221oi_1
XFILLER_0_614 VPWR VGND sg13g2_decap_8
XFILLER_29_821 VPWR VGND sg13g2_fill_1
XFILLER_16_548 VPWR VGND sg13g2_fill_1
XFILLER_11_253 VPWR VGND sg13g2_fill_1
XFILLER_4_964 VPWR VGND sg13g2_decap_8
XFILLER_3_441 VPWR VGND sg13g2_decap_4
XFILLER_39_607 VPWR VGND sg13g2_decap_8
Xfanout1231 s0.shift_out\[15\][0] net1231 VPWR VGND sg13g2_buf_8
Xfanout1220 s0.valid_out\[14\][0] net1220 VPWR VGND sg13g2_buf_8
Xfanout1264 s0.shift_out\[18\][0] net1264 VPWR VGND sg13g2_buf_2
Xfanout1242 net1243 net1242 VPWR VGND sg13g2_buf_8
Xfanout1253 net1256 net1253 VPWR VGND sg13g2_buf_1
Xfanout1286 net1289 net1286 VPWR VGND sg13g2_buf_2
Xfanout1297 net1299 net1297 VPWR VGND sg13g2_buf_8
Xfanout1275 net1280 net1275 VPWR VGND sg13g2_buf_8
XFILLER_35_802 VPWR VGND sg13g2_decap_4
X_5760_ net1290 net1170 _0345_ VPWR VGND sg13g2_nor2b_1
X_4711_ VGND VPWR net1065 _2196_ _2198_ _2197_ sg13g2_a21oi_1
X_5691_ _3082_ _3084_ net1416 _3085_ VPWR VGND sg13g2_nand3_1
X_4642_ _2129_ VPWR _2132_ VGND net1077 _2131_ sg13g2_o21ai_1
X_4573_ net1403 _2062_ _2072_ VPWR VGND sg13g2_nor2_1
X_6312_ _0847_ _0845_ net1430 _0849_ VPWR VGND sg13g2_a21o_1
X_3524_ net1201 net1169 _1126_ VPWR VGND sg13g2_nor2b_1
X_6243_ net1477 net326 _0075_ VPWR VGND sg13g2_and2_1
X_3455_ _1069_ _1068_ net1230 VPWR VGND sg13g2_nand2b_1
X_6174_ s0.data_out\[18\]\[4\] s0.data_out\[17\]\[4\] net1259 _0723_ VPWR VGND sg13g2_mux2_1
X_5125_ net1041 VPWR _2569_ VGND _2513_ _2568_ sg13g2_o21ai_1
X_5056_ net1030 net1142 _2507_ VPWR VGND sg13g2_nor2b_1
X_4007_ net1491 VPWR _1564_ VGND _1561_ _1563_ sg13g2_o21ai_1
XFILLER_25_367 VPWR VGND sg13g2_decap_8
XFILLER_26_879 VPWR VGND sg13g2_fill_2
X_5958_ _0474_ _0529_ net1472 _0530_ VPWR VGND sg13g2_nand3_1
X_4909_ s0.data_out\[3\]\[1\] s0.data_out\[2\]\[1\] net1044 _2372_ VPWR VGND sg13g2_mux2_1
X_5889_ _0462_ net1284 net695 VPWR VGND sg13g2_nand2_1
XFILLER_4_205 VPWR VGND sg13g2_fill_2
XFILLER_20_21 VPWR VGND sg13g2_fill_1
XFILLER_1_912 VPWR VGND sg13g2_decap_8
XFILLER_0_400 VPWR VGND sg13g2_fill_1
XFILLER_0_422 VPWR VGND sg13g2_decap_4
XFILLER_49_905 VPWR VGND sg13g2_decap_8
Xhold41 s0.data_out\[0\]\[7\] VPWR VGND net361 sg13g2_dlygate4sd3_1
Xhold30 s0.was_valid_out\[10\][0] VPWR VGND net350 sg13g2_dlygate4sd3_1
XFILLER_0_488 VPWR VGND sg13g2_decap_8
XFILLER_1_989 VPWR VGND sg13g2_decap_8
Xhold52 _1731_ VPWR VGND net372 sg13g2_dlygate4sd3_1
Xhold74 s0.data_out\[0\]\[6\] VPWR VGND net394 sg13g2_dlygate4sd3_1
Xhold63 s0.was_valid_out\[17\][0] VPWR VGND net383 sg13g2_dlygate4sd3_1
Xhold85 _2061_ VPWR VGND net405 sg13g2_dlygate4sd3_1
Xhold96 s0.data_out\[23\]\[4\] VPWR VGND net416 sg13g2_dlygate4sd3_1
XFILLER_16_323 VPWR VGND sg13g2_decap_8
XFILLER_17_835 VPWR VGND sg13g2_fill_1
XFILLER_43_131 VPWR VGND sg13g2_fill_2
XFILLER_16_334 VPWR VGND sg13g2_fill_2
XFILLER_16_356 VPWR VGND sg13g2_fill_1
XFILLER_4_783 VPWR VGND sg13g2_decap_8
XFILLER_39_426 VPWR VGND sg13g2_fill_2
XFILLER_6_1005 VPWR VGND sg13g2_decap_8
Xfanout1083 net1084 net1083 VPWR VGND sg13g2_buf_1
Xfanout1072 net1073 net1072 VPWR VGND sg13g2_buf_8
Xfanout1061 net1063 net1061 VPWR VGND sg13g2_buf_8
Xfanout1050 net1055 net1050 VPWR VGND sg13g2_buf_8
Xfanout1094 net1095 net1094 VPWR VGND sg13g2_buf_8
XFILLER_23_805 VPWR VGND sg13g2_fill_2
X_5812_ _0394_ _0396_ net1427 _0397_ VPWR VGND sg13g2_nand3_1
XFILLER_34_153 VPWR VGND sg13g2_decap_4
X_5743_ _0331_ _0330_ net698 VPWR VGND sg13g2_nand2b_1
XFILLER_31_882 VPWR VGND sg13g2_fill_1
X_5674_ net1398 _3058_ _3068_ VPWR VGND sg13g2_nor2_1
X_4625_ _2117_ VPWR _2118_ VGND net1480 net630 sg13g2_o21ai_1
X_4556_ _2052_ _2054_ _2055_ VPWR VGND sg13g2_nor2_1
X_3507_ net1018 VPWR _1112_ VGND net566 net1222 sg13g2_o21ai_1
X_4487_ _0206_ _1993_ _1994_ _2858_ net1371 VPWR VGND sg13g2_a22oi_1
X_6226_ _0767_ net1470 _0768_ VPWR VGND _0716_ sg13g2_nand3b_1
X_3438_ VGND VPWR _1052_ _1042_ net1404 sg13g2_or2_1
X_6157_ net1249 net1143 _0706_ VPWR VGND sg13g2_nor2b_1
X_5108_ _2555_ VPWR _2556_ VGND net1468 net582 sg13g2_o21ai_1
XFILLER_39_982 VPWR VGND sg13g2_decap_8
X_6088_ _0055_ _0644_ _0645_ _2795_ net1355 VPWR VGND sg13g2_a22oi_1
X_5039_ _2490_ net1009 _2489_ VPWR VGND sg13g2_nand2_1
XFILLER_15_98 VPWR VGND sg13g2_fill_2
XFILLER_22_860 VPWR VGND sg13g2_fill_1
Xoutput7 net7 uo_out[5] VPWR VGND sg13g2_buf_1
XFILLER_49_702 VPWR VGND sg13g2_decap_8
XFILLER_1_786 VPWR VGND sg13g2_decap_8
XFILLER_49_779 VPWR VGND sg13g2_decap_8
XFILLER_45_963 VPWR VGND sg13g2_decap_8
XFILLER_29_492 VPWR VGND sg13g2_decap_4
XFILLER_17_698 VPWR VGND sg13g2_decap_8
XFILLER_16_186 VPWR VGND sg13g2_fill_1
XFILLER_12_381 VPWR VGND sg13g2_decap_8
X_4410_ _1919_ net1085 _1920_ _1921_ VPWR VGND sg13g2_a21o_1
X_5390_ VPWR _2808_ net503 VGND sg13g2_inv_1
X_4341_ _1864_ net639 net1119 VPWR VGND sg13g2_nand2b_1
X_4272_ _1798_ _1795_ _1797_ VPWR VGND sg13g2_nand2_1
X_6011_ net1265 net1167 _0572_ VPWR VGND sg13g2_nor2b_1
XFILLER_27_429 VPWR VGND sg13g2_decap_4
XFILLER_23_624 VPWR VGND sg13g2_fill_2
XFILLER_35_462 VPWR VGND sg13g2_fill_2
XFILLER_22_134 VPWR VGND sg13g2_decap_8
X_6775_ net203 VGND VPWR _0285_ s0.valid_out\[0\][0] clknet_leaf_9_clk sg13g2_dfrbpq_1
X_3987_ _1509_ _1546_ net1490 _1547_ VPWR VGND sg13g2_nand3_1
X_5726_ VGND VPWR net1012 _3083_ _0317_ net1340 sg13g2_a21oi_1
X_5657_ _3048_ _3050_ _3051_ VPWR VGND sg13g2_nor2_1
X_5588_ net1317 s0.data_out\[22\]\[2\] _2991_ VPWR VGND sg13g2_and2_1
X_4608_ VGND VPWR net1074 net606 _2104_ _2045_ sg13g2_a21oi_1
Xhold330 s0.data_out\[21\]\[6\] VPWR VGND net650 sg13g2_dlygate4sd3_1
Xhold352 s0.data_out\[20\]\[0\] VPWR VGND net672 sg13g2_dlygate4sd3_1
Xhold341 s0.data_out\[11\]\[0\] VPWR VGND net661 sg13g2_dlygate4sd3_1
X_4539_ _2036_ net1075 _2037_ _2038_ VPWR VGND sg13g2_a21o_1
Xhold374 _1102_ VPWR VGND net694 sg13g2_dlygate4sd3_1
Xhold385 s0.data_new_delayed\[0\] VPWR VGND net705 sg13g2_dlygate4sd3_1
Xhold363 s0.data_out\[1\]\[2\] VPWR VGND net683 sg13g2_dlygate4sd3_1
X_6209_ net1268 VPWR _0755_ VGND _0674_ _0754_ sg13g2_o21ai_1
XFILLER_46_705 VPWR VGND sg13g2_fill_2
XFILLER_26_20 VPWR VGND sg13g2_decap_4
XFILLER_42_922 VPWR VGND sg13g2_decap_8
XFILLER_27_985 VPWR VGND sg13g2_decap_8
Xclkbuf_3_6__f_clk clknet_0_clk clknet_3_6__leaf_clk VPWR VGND sg13g2_buf_8
XFILLER_26_495 VPWR VGND sg13g2_decap_8
XFILLER_42_999 VPWR VGND sg13g2_decap_8
XFILLER_14_679 VPWR VGND sg13g2_fill_1
XFILLER_10_841 VPWR VGND sg13g2_fill_1
XFILLER_5_344 VPWR VGND sg13g2_fill_1
XFILLER_5_377 VPWR VGND sg13g2_decap_8
XFILLER_1_561 VPWR VGND sg13g2_decap_8
XFILLER_49_576 VPWR VGND sg13g2_decap_8
XFILLER_45_793 VPWR VGND sg13g2_decap_8
X_4890_ _2356_ _2355_ _2354_ VPWR VGND sg13g2_nand2b_1
X_3910_ _1461_ VPWR _1476_ VGND net1454 _1468_ sg13g2_o21ai_1
XFILLER_32_421 VPWR VGND sg13g2_decap_4
X_3841_ _1346_ _1418_ net1484 _1419_ VPWR VGND sg13g2_nand3_1
X_6560_ net284 VGND VPWR _0070_ s0.data_out\[18\]\[5\] clknet_leaf_36_clk sg13g2_dfrbpq_2
X_3772_ VPWR VGND _1350_ net1459 _1346_ net1455 _1351_ _1344_ sg13g2_a221oi_1
X_6673__162 VPWR VGND net162 sg13g2_tiehi
X_5511_ net1315 net1166 _2917_ VPWR VGND sg13g2_nor2b_1
X_6491_ net63 VGND VPWR _0001_ s0.was_valid_out\[23\][0] clknet_leaf_1_clk sg13g2_dfrbpq_1
X_5442_ VPWR _2860_ net404 VGND sg13g2_inv_1
X_5373_ VPWR _2791_ net506 VGND sg13g2_inv_1
X_4324_ _1847_ _1846_ net1403 _1839_ net1412 VPWR VGND sg13g2_a22oi_1
X_4255_ _1783_ VPWR _1784_ VGND net1489 net680 sg13g2_o21ai_1
X_4186_ net1116 net1149 _1721_ VPWR VGND sg13g2_nor2b_1
XFILLER_36_760 VPWR VGND sg13g2_decap_4
XFILLER_35_270 VPWR VGND sg13g2_fill_1
XFILLER_24_977 VPWR VGND sg13g2_decap_8
X_6758_ net70 VGND VPWR _0268_ s0.data_out\[2\]\[4\] clknet_leaf_9_clk sg13g2_dfrbpq_2
X_6537__309 VPWR VGND net309 sg13g2_tiehi
X_6517__34 VPWR VGND net34 sg13g2_tiehi
X_6689_ net145 VGND VPWR _0199_ s0.data_out\[8\]\[7\] clknet_leaf_19_clk sg13g2_dfrbpq_2
X_5709_ net1342 _3022_ _0304_ VPWR VGND sg13g2_nor2_1
XFILLER_12_88 VPWR VGND sg13g2_fill_2
XFILLER_3_859 VPWR VGND sg13g2_decap_8
Xhold171 s0.data_out\[13\]\[4\] VPWR VGND net491 sg13g2_dlygate4sd3_1
Xhold160 _0090_ VPWR VGND net480 sg13g2_dlygate4sd3_1
Xhold193 _0271_ VPWR VGND net513 sg13g2_dlygate4sd3_1
Xhold182 _0217_ VPWR VGND net502 sg13g2_dlygate4sd3_1
XFILLER_46_513 VPWR VGND sg13g2_fill_1
XFILLER_19_716 VPWR VGND sg13g2_fill_1
XFILLER_26_270 VPWR VGND sg13g2_decap_4
XFILLER_27_782 VPWR VGND sg13g2_fill_1
XFILLER_15_999 VPWR VGND sg13g2_decap_8
XFILLER_30_947 VPWR VGND sg13g2_decap_8
X_6657__179 VPWR VGND net179 sg13g2_tiehi
XFILLER_6_686 VPWR VGND sg13g2_decap_4
XFILLER_5_174 VPWR VGND sg13g2_fill_2
X_4040_ s0.data_out\[9\]\[2\] s0.data_out\[10\]\[2\] net1174 _1587_ VPWR VGND sg13g2_mux2_1
XFILLER_49_395 VPWR VGND sg13g2_decap_8
X_5991_ _0553_ _0554_ _0555_ VPWR VGND sg13g2_nor2_1
XFILLER_24_218 VPWR VGND sg13g2_decap_8
X_4942_ _2403_ net1041 _2404_ _2405_ VPWR VGND sg13g2_a21o_1
XFILLER_24_229 VPWR VGND sg13g2_fill_1
XFILLER_17_292 VPWR VGND sg13g2_fill_1
XFILLER_21_903 VPWR VGND sg13g2_fill_1
XFILLER_21_914 VPWR VGND sg13g2_fill_2
XFILLER_33_752 VPWR VGND sg13g2_fill_1
X_6612_ net227 VGND VPWR _0122_ s0.valid_out\[13\][0] clknet_leaf_27_clk sg13g2_dfrbpq_1
XFILLER_20_424 VPWR VGND sg13g2_fill_1
X_4873_ _2342_ VPWR _2343_ VGND net1473 net569 sg13g2_o21ai_1
X_3824_ _1403_ net1195 _1402_ VPWR VGND sg13g2_nand2b_1
X_6543_ net302 VGND VPWR _0053_ s0.data_out\[19\]\[0\] clknet_leaf_4_clk sg13g2_dfrbpq_2
X_3755_ _1336_ _1333_ _1335_ VPWR VGND sg13g2_nand2_1
X_6474_ net1224 s0.data_out\[15\]\[7\] _0991_ VPWR VGND sg13g2_and2_1
X_3686_ s0.data_out\[13\]\[5\] s0.data_out\[12\]\[5\] net1198 _1276_ VPWR VGND sg13g2_mux2_1
X_5425_ VPWR _2843_ net572 VGND sg13g2_inv_1
X_5356_ _2774_ net1443 VPWR VGND sg13g2_inv_2
X_5287_ VGND VPWR _2714_ _2712_ net1408 sg13g2_or2_1
X_4307_ VGND VPWR net1112 _1827_ _1830_ _1829_ sg13g2_a21oi_1
X_4238_ _0181_ _1769_ _1770_ _2843_ net1374 VPWR VGND sg13g2_a22oi_1
X_6543__302 VPWR VGND net302 sg13g2_tiehi
XFILLER_28_535 VPWR VGND sg13g2_fill_1
X_4169_ VGND VPWR net1111 _1702_ _1704_ _1703_ sg13g2_a21oi_1
XFILLER_24_785 VPWR VGND sg13g2_fill_1
Xfanout1402 net1406 net1402 VPWR VGND sg13g2_buf_8
Xfanout1413 net1415 net1413 VPWR VGND sg13g2_buf_8
Xfanout1424 net1425 net1424 VPWR VGND sg13g2_buf_8
Xfanout1446 net1448 net1446 VPWR VGND sg13g2_buf_8
Xfanout1457 ui_in[1] net1457 VPWR VGND sg13g2_buf_8
Xfanout1435 net1438 net1435 VPWR VGND sg13g2_buf_8
XFILLER_47_822 VPWR VGND sg13g2_decap_8
Xfanout1479 net1482 net1479 VPWR VGND sg13g2_buf_8
Xfanout1468 net1469 net1468 VPWR VGND sg13g2_buf_8
XFILLER_46_332 VPWR VGND sg13g2_fill_2
XFILLER_0_25 VPWR VGND sg13g2_decap_8
XFILLER_47_899 VPWR VGND sg13g2_decap_8
XFILLER_0_36 VPWR VGND sg13g2_decap_8
XFILLER_15_730 VPWR VGND sg13g2_fill_1
XFILLER_31_1013 VPWR VGND sg13g2_decap_8
X_3540_ _1140_ net1203 _1141_ _1142_ VPWR VGND sg13g2_a21o_1
XFILLER_7_995 VPWR VGND sg13g2_decap_8
X_6670__165 VPWR VGND net165 sg13g2_tiehi
X_5210_ _2628_ _2636_ _2645_ _2648_ _2649_ VPWR VGND sg13g2_nor4_1
X_3471_ net1018 _2824_ _1083_ VPWR VGND sg13g2_nor2_1
XFILLER_9_1003 VPWR VGND sg13g2_decap_8
X_6190_ net1439 _0702_ _0739_ VPWR VGND sg13g2_nor2_1
X_5141_ _2581_ _2582_ _0272_ VPWR VGND sg13g2_nor2_1
X_5072_ s0.data_out\[2\]\[4\] s0.data_out\[1\]\[4\] net1035 _2523_ VPWR VGND sg13g2_mux2_1
X_4023_ net1124 net1168 _1570_ VPWR VGND sg13g2_nor2b_1
XFILLER_49_192 VPWR VGND sg13g2_fill_2
XFILLER_49_170 VPWR VGND sg13g2_fill_2
XFILLER_25_516 VPWR VGND sg13g2_fill_2
XFILLER_25_549 VPWR VGND sg13g2_fill_1
X_5974_ net1295 VPWR _0542_ VGND _0507_ _0541_ sg13g2_o21ai_1
XFILLER_21_700 VPWR VGND sg13g2_decap_8
X_4925_ _2387_ VPWR _2388_ VGND net1044 _2877_ sg13g2_o21ai_1
X_4856_ _2329_ VPWR _2330_ VGND net1473 net600 sg13g2_o21ai_1
X_3807_ VGND VPWR _1265_ _1385_ _1386_ net1194 sg13g2_a21oi_1
X_6526_ net25 VGND VPWR _0036_ s0.data_out\[21\]\[7\] clknet_leaf_39_clk sg13g2_dfrbpq_2
X_4787_ _2260_ net1049 _2261_ _2262_ VPWR VGND sg13g2_a21o_1
X_3738_ VPWR _0130_ _1321_ VGND sg13g2_inv_1
X_6457_ net1225 s0.data_out\[15\]\[3\] _0978_ VPWR VGND sg13g2_and2_1
X_3669_ s0.data_out\[13\]\[7\] s0.data_out\[12\]\[7\] net1198 _1259_ VPWR VGND sg13g2_mux2_1
X_5408_ VPWR _2826_ net491 VGND sg13g2_inv_1
X_6388_ _0913_ _0912_ net1243 VPWR VGND sg13g2_nand2b_1
X_5339_ _2757_ net1254 VPWR VGND sg13g2_inv_2
XFILLER_47_129 VPWR VGND sg13g2_fill_1
XFILLER_43_324 VPWR VGND sg13g2_fill_1
XFILLER_28_387 VPWR VGND sg13g2_decap_4
XFILLER_12_700 VPWR VGND sg13g2_decap_8
XFILLER_11_298 VPWR VGND sg13g2_fill_2
XFILLER_4_943 VPWR VGND sg13g2_decap_8
Xfanout1232 net1233 net1232 VPWR VGND sg13g2_buf_8
Xfanout1221 s0.valid_out\[14\][0] net1221 VPWR VGND sg13g2_buf_8
Xfanout1210 net1212 net1210 VPWR VGND sg13g2_buf_8
Xfanout1254 net1256 net1254 VPWR VGND sg13g2_buf_8
Xfanout1265 net1266 net1265 VPWR VGND sg13g2_buf_8
Xfanout1243 net1244 net1243 VPWR VGND sg13g2_buf_1
Xfanout1287 net1289 net1287 VPWR VGND sg13g2_buf_8
Xfanout1298 net1299 net1298 VPWR VGND sg13g2_buf_1
Xfanout1276 net1277 net1276 VPWR VGND sg13g2_buf_8
XFILLER_47_685 VPWR VGND sg13g2_decap_8
XFILLER_34_324 VPWR VGND sg13g2_fill_2
XFILLER_15_571 VPWR VGND sg13g2_fill_1
XFILLER_42_390 VPWR VGND sg13g2_decap_8
X_4710_ net1065 net1151 _2197_ VPWR VGND sg13g2_nor2b_1
X_5690_ _3084_ net1012 _3083_ VPWR VGND sg13g2_nand2_1
X_4641_ s0.was_valid_out\[4\][0] net1082 _2131_ VPWR VGND sg13g2_nor2_1
X_4572_ VGND VPWR _2071_ _2069_ net1412 sg13g2_or2_1
X_6311_ _0845_ _0847_ net1430 _0848_ VPWR VGND sg13g2_nand3_1
X_3523_ _1124_ VPWR _1125_ VGND net1210 _2824_ sg13g2_o21ai_1
X_6242_ net1478 _0775_ _0074_ VPWR VGND sg13g2_and2_1
X_3454_ _0945_ VPWR _1068_ VGND net1234 _2821_ sg13g2_o21ai_1
XFILLER_41_0 VPWR VGND sg13g2_decap_4
X_6173_ _0722_ net1257 s0.data_out\[17\]\[4\] VPWR VGND sg13g2_nand2_1
X_5124_ net1032 s0.data_out\[1\]\[6\] _2568_ VPWR VGND sg13g2_and2_1
X_5055_ s0.data_out\[2\]\[7\] s0.data_out\[1\]\[7\] net1034 _2506_ VPWR VGND sg13g2_mux2_1
X_4006_ _1563_ _1560_ _1562_ VPWR VGND sg13g2_nand2_1
X_6540__305 VPWR VGND net305 sg13g2_tiehi
XFILLER_26_847 VPWR VGND sg13g2_fill_1
XFILLER_38_1019 VPWR VGND sg13g2_decap_8
XFILLER_26_869 VPWR VGND sg13g2_fill_1
X_5957_ net1293 VPWR _0529_ VGND _0470_ _0528_ sg13g2_o21ai_1
X_6718__113 VPWR VGND net113 sg13g2_tiehi
X_4908_ _2371_ net1043 net514 VPWR VGND sg13g2_nand2_1
XFILLER_33_390 VPWR VGND sg13g2_fill_1
XFILLER_34_891 VPWR VGND sg13g2_fill_2
X_5888_ VGND VPWR _0461_ _0460_ net1444 sg13g2_or2_1
XFILLER_21_541 VPWR VGND sg13g2_decap_4
X_4839_ VGND VPWR net1053 _2312_ _2314_ _2313_ sg13g2_a21oi_1
XFILLER_5_707 VPWR VGND sg13g2_decap_8
X_6509_ net43 VGND VPWR _0019_ s0.data_out\[22\]\[2\] clknet_leaf_1_clk sg13g2_dfrbpq_2
XFILLER_0_412 VPWR VGND sg13g2_decap_4
XFILLER_1_968 VPWR VGND sg13g2_decap_8
X_6725__106 VPWR VGND net106 sg13g2_tiehi
Xhold20 s0.genblk1\[3\].modules.bubble VPWR VGND net340 sg13g2_dlygate4sd3_1
Xhold31 _0157_ VPWR VGND net351 sg13g2_dlygate4sd3_1
XFILLER_0_456 VPWR VGND sg13g2_decap_4
XFILLER_0_467 VPWR VGND sg13g2_decap_8
Xhold64 s0.shift_out\[5\][0] VPWR VGND net384 sg13g2_dlygate4sd3_1
Xhold42 s0.was_valid_out\[15\][0] VPWR VGND net362 sg13g2_dlygate4sd3_1
XFILLER_29_64 VPWR VGND sg13g2_fill_2
Xhold53 s0.data_out\[11\]\[4\] VPWR VGND net373 sg13g2_dlygate4sd3_1
Xhold75 s0.data_out\[0\]\[5\] VPWR VGND net395 sg13g2_dlygate4sd3_1
Xhold97 _0009_ VPWR VGND net417 sg13g2_dlygate4sd3_1
Xhold86 s0.data_out\[13\]\[7\] VPWR VGND net406 sg13g2_dlygate4sd3_1
XFILLER_17_825 VPWR VGND sg13g2_decap_4
XFILLER_8_512 VPWR VGND sg13g2_decap_8
XFILLER_12_563 VPWR VGND sg13g2_fill_2
Xfanout1040 net1041 net1040 VPWR VGND sg13g2_buf_8
XFILLER_6_1028 VPWR VGND sg13g2_fill_1
Xfanout1051 net1054 net1051 VPWR VGND sg13g2_buf_8
Xfanout1073 net384 net1073 VPWR VGND sg13g2_buf_8
Xfanout1062 net1063 net1062 VPWR VGND sg13g2_buf_1
Xfanout1084 net711 net1084 VPWR VGND sg13g2_buf_8
Xfanout1095 s0.valid_out\[6\][0] net1095 VPWR VGND sg13g2_buf_8
X_5811_ _0396_ net1007 _0395_ VPWR VGND sg13g2_nand2_1
X_5742_ _0328_ _0329_ _0330_ VPWR VGND sg13g2_nor2_1
XFILLER_31_850 VPWR VGND sg13g2_fill_2
X_5673_ VGND VPWR _3067_ _3065_ net1407 sg13g2_or2_1
X_4624_ _2116_ VPWR _2117_ VGND net999 _2115_ sg13g2_o21ai_1
X_4555_ _2053_ VPWR _2054_ VGND _2042_ _2050_ sg13g2_o21ai_1
X_3506_ VGND VPWR _1111_ net1211 net566 sg13g2_or2_1
X_4486_ net1371 _1915_ _1994_ VPWR VGND sg13g2_nor2_1
X_6225_ net1262 VPWR _0767_ VGND _0713_ _0766_ sg13g2_o21ai_1
X_3437_ VGND VPWR _1051_ _1049_ net1413 sg13g2_or2_1
XFILLER_44_1023 VPWR VGND sg13g2_decap_4
X_6156_ s0.data_out\[18\]\[7\] s0.data_out\[17\]\[7\] net1258 _0705_ VPWR VGND sg13g2_mux2_1
X_5107_ _2490_ _2554_ net1468 _2555_ VPWR VGND sg13g2_nand3_1
XFILLER_39_961 VPWR VGND sg13g2_decap_8
X_6087_ net1355 _0567_ _0645_ VPWR VGND sg13g2_nor2_1
X_5038_ s0.data_out\[1\]\[2\] s0.data_out\[2\]\[2\] net1043 _2489_ VPWR VGND sg13g2_mux2_1
XFILLER_41_647 VPWR VGND sg13g2_fill_1
XFILLER_40_113 VPWR VGND sg13g2_fill_1
XFILLER_15_66 VPWR VGND sg13g2_fill_1
Xoutput8 net8 uo_out[6] VPWR VGND sg13g2_buf_1
XFILLER_0_253 VPWR VGND sg13g2_fill_2
XFILLER_0_242 VPWR VGND sg13g2_decap_8
XFILLER_1_765 VPWR VGND sg13g2_decap_8
XFILLER_49_758 VPWR VGND sg13g2_decap_8
XFILLER_0_297 VPWR VGND sg13g2_fill_1
XFILLER_48_257 VPWR VGND sg13g2_fill_2
XFILLER_45_942 VPWR VGND sg13g2_decap_8
XFILLER_44_441 VPWR VGND sg13g2_decap_4
XFILLER_13_872 VPWR VGND sg13g2_decap_8
XFILLER_31_157 VPWR VGND sg13g2_decap_8
XFILLER_31_168 VPWR VGND sg13g2_fill_1
XFILLER_9_865 VPWR VGND sg13g2_fill_2
X_4340_ _1861_ net1102 _1862_ _1863_ VPWR VGND sg13g2_a21o_1
X_4271_ _2759_ VPWR _1797_ VGND s0.was_valid_out\[7\][0] net1120 sg13g2_o21ai_1
XFILLER_28_1018 VPWR VGND sg13g2_decap_8
X_6010_ _0570_ VPWR _0571_ VGND net1270 _2796_ sg13g2_o21ai_1
XFILLER_39_257 VPWR VGND sg13g2_decap_4
XFILLER_39_279 VPWR VGND sg13g2_fill_1
XFILLER_36_986 VPWR VGND sg13g2_decap_8
X_6774_ net228 VGND VPWR _0284_ s0.was_valid_out\[0\][0] clknet_leaf_10_clk sg13g2_dfrbpq_1