* NGSPICE file created from heichips25_top_sorter.ext - technology: ihp-sg13g2

* Black-box entry subcircuit for sg13g2_dfrbpq_1 abstract view
.subckt sg13g2_dfrbpq_1 RESET_B VSS VDD D Q CLK
.ends

* Black-box entry subcircuit for sg13g2_a21oi_1 abstract view
.subckt sg13g2_a21oi_1 VSS VDD A1 A2 Y B1
.ends

* Black-box entry subcircuit for sg13g2_dfrbpq_2 abstract view
.subckt sg13g2_dfrbpq_2 RESET_B VSS VDD D Q CLK
.ends

* Black-box entry subcircuit for sg13g2_o21ai_1 abstract view
.subckt sg13g2_o21ai_1 B1 VDD Y VSS A1 A2
.ends

* Black-box entry subcircuit for sg13g2_inv_1 abstract view
.subckt sg13g2_inv_1 VDD Y A VSS
.ends

* Black-box entry subcircuit for sg13g2_nand2_1 abstract view
.subckt sg13g2_nand2_1 Y A B VDD VSS
.ends

* Black-box entry subcircuit for sg13g2_dlygate4sd3_1 abstract view
.subckt sg13g2_dlygate4sd3_1 A VDD VSS X
.ends

* Black-box entry subcircuit for sg13g2_tiehi abstract view
.subckt sg13g2_tiehi VDD VSS L_HI
.ends

* Black-box entry subcircuit for sg13g2_mux2_1 abstract view
.subckt sg13g2_mux2_1 A0 A1 S X VDD VSS
.ends

* Black-box entry subcircuit for sg13g2_decap_8 abstract view
.subckt sg13g2_decap_8 VDD VSS
.ends

* Black-box entry subcircuit for sg13g2_fill_1 abstract view
.subckt sg13g2_fill_1 VDD VSS
.ends

* Black-box entry subcircuit for sg13g2_decap_4 abstract view
.subckt sg13g2_decap_4 VDD VSS
.ends

* Black-box entry subcircuit for sg13g2_nand2b_1 abstract view
.subckt sg13g2_nand2b_1 Y B A_N VDD VSS
.ends

* Black-box entry subcircuit for sg13g2_nor2_1 abstract view
.subckt sg13g2_nor2_1 A B Y VDD VSS
.ends

* Black-box entry subcircuit for sg13g2_nor2b_1 abstract view
.subckt sg13g2_nor2b_1 A B_N Y VDD VSS
.ends

* Black-box entry subcircuit for sg13g2_nand3b_1 abstract view
.subckt sg13g2_nand3b_1 B C Y VDD VSS A_N
.ends

* Black-box entry subcircuit for sg13g2_a221oi_1 abstract view
.subckt sg13g2_a221oi_1 VDD VSS B2 C1 B1 A1 Y A2
.ends

* Black-box entry subcircuit for sg13g2_or2_1 abstract view
.subckt sg13g2_or2_1 VSS VDD X B A
.ends

* Black-box entry subcircuit for sg13g2_fill_2 abstract view
.subckt sg13g2_fill_2 VDD VSS
.ends

* Black-box entry subcircuit for sg13g2_buf_8 abstract view
.subckt sg13g2_buf_8 A X VDD VSS
.ends

* Black-box entry subcircuit for sg13g2_nand3_1 abstract view
.subckt sg13g2_nand3_1 B C A Y VDD VSS
.ends

* Black-box entry subcircuit for sg13g2_or3_1 abstract view
.subckt sg13g2_or3_1 A B C X VDD VSS
.ends

* Black-box entry subcircuit for sg13g2_a21o_1 abstract view
.subckt sg13g2_a21o_1 A2 A1 B1 X VDD VSS
.ends

* Black-box entry subcircuit for sg13g2_buf_2 abstract view
.subckt sg13g2_buf_2 A X VDD VSS
.ends

* Black-box entry subcircuit for sg13g2_buf_1 abstract view
.subckt sg13g2_buf_1 A X VDD VSS
.ends

* Black-box entry subcircuit for sg13g2_a22oi_1 abstract view
.subckt sg13g2_a22oi_1 Y B1 B2 A2 A1 VDD VSS
.ends

* Black-box entry subcircuit for sg13g2_and2_1 abstract view
.subckt sg13g2_and2_1 A B X VDD VSS
.ends

* Black-box entry subcircuit for sg13g2_inv_4 abstract view
.subckt sg13g2_inv_4 A Y VDD VSS
.ends

* Black-box entry subcircuit for sg13g2_nor3_1 abstract view
.subckt sg13g2_nor3_1 A B C Y VDD VSS
.ends

* Black-box entry subcircuit for sg13g2_nor2_2 abstract view
.subckt sg13g2_nor2_2 A B Y VDD VSS
.ends

* Black-box entry subcircuit for sg13g2_and4_1 abstract view
.subckt sg13g2_and4_1 A B C D X VDD VSS
.ends

* Black-box entry subcircuit for sg13g2_nor4_1 abstract view
.subckt sg13g2_nor4_1 A B C D Y VDD VSS
.ends

* Black-box entry subcircuit for sg13g2_xnor2_1 abstract view
.subckt sg13g2_xnor2_1 Y A B VDD VSS
.ends

* Black-box entry subcircuit for sg13g2_inv_2 abstract view
.subckt sg13g2_inv_2 Y A VDD VSS
.ends

* Black-box entry subcircuit for sg13g2_nand4_1 abstract view
.subckt sg13g2_nand4_1 B C A Y VDD VSS D
.ends

* Black-box entry subcircuit for sg13g2_a21oi_2 abstract view
.subckt sg13g2_a21oi_2 VSS VDD B1 Y A2 A1
.ends

* Black-box entry subcircuit for sg13g2_tielo abstract view
.subckt sg13g2_tielo VDD VSS L_LO
.ends

* Black-box entry subcircuit for sg13g2_and3_1 abstract view
.subckt sg13g2_and3_1 X A B C VDD VSS
.ends

* Black-box entry subcircuit for sg13g2_inv_8 abstract view
.subckt sg13g2_inv_8 Y A VDD VSS
.ends

* Black-box entry subcircuit for sg13g2_nand2_2 abstract view
.subckt sg13g2_nand2_2 Y A B VDD VSS
.ends

* Black-box entry subcircuit for sg13g2_nand2b_2 abstract view
.subckt sg13g2_nand2b_2 Y B VDD VSS A_N
.ends

* Black-box entry subcircuit for sg13g2_or4_1 abstract view
.subckt sg13g2_or4_1 A B C D X VDD VSS
.ends

.subckt heichips25_top_sorter VGND VPWR clk ena rst_n ui_in[0] ui_in[1] ui_in[2] ui_in[3]
+ ui_in[4] ui_in[5] ui_in[6] ui_in[7] uio_in[0] uio_in[1] uio_in[2] uio_in[3] uio_in[4]
+ uio_in[5] uio_in[6] uio_in[7] uio_oe[0] uio_oe[1] uio_oe[2] uio_oe[3] uio_oe[4]
+ uio_oe[5] uio_oe[6] uio_oe[7] uio_out[0] uio_out[1] uio_out[2] uio_out[3] uio_out[4]
+ uio_out[5] uio_out[6] uio_out[7] uo_out[0] uo_out[1] uo_out[2] uo_out[3] uo_out[4]
+ uo_out[5] uo_out[6] uo_out[7]
X_7963_ net191 VGND VPWR _0097_ s0.valid_out\[0\][0] clknet_leaf_10_clk sg13g2_dfrbpq_1
X_6914_ VGND VPWR _2719_ _2721_ _2724_ net1667 sg13g2_a21oi_1
X_7894_ net115 VGND VPWR _0028_ s0.data_out\[6\]\[0\] clknet_leaf_4_clk sg13g2_dfrbpq_2
X_6845_ _2654_ VPWR _2655_ VGND net1260 _3523_ sg13g2_o21ai_1
X_3988_ VPWR _3364_ net439 VGND sg13g2_inv_1
X_6776_ _2598_ net1169 _2597_ VPWR VGND sg13g2_nand2_1
X_5727_ _1652_ net1401 net730 VPWR VGND sg13g2_nand2_1
X_5658_ net1417 VPWR _1594_ VGND _1535_ _1593_ sg13g2_o21ai_1
X_4609_ VGND VPWR net1516 _0639_ _0642_ _0641_ sg13g2_a21oi_1
X_5589_ _1526_ net1411 net814 VPWR VGND sg13g2_nand2_1
Xhold340 s0.data_out\[12\]\[6\] VPWR VGND net709 sg13g2_dlygate4sd3_1
Xhold351 s0.data_out\[22\]\[5\] VPWR VGND net720 sg13g2_dlygate4sd3_1
X_7639__47 VPWR VGND net47 sg13g2_tiehi
Xhold362 s0.data_out\[25\]\[2\] VPWR VGND net731 sg13g2_dlygate4sd3_1
X_7328_ net1235 VPWR _3094_ VGND _3034_ _3093_ sg13g2_o21ai_1
Xhold395 s0.data_out\[19\]\[6\] VPWR VGND net764 sg13g2_dlygate4sd3_1
Xhold373 s0.data_out\[8\]\[0\] VPWR VGND net742 sg13g2_dlygate4sd3_1
Xhold384 s0.data_out\[11\]\[1\] VPWR VGND net753 sg13g2_dlygate4sd3_1
X_7259_ s0.data_out\[3\]\[7\] s0.data_out\[2\]\[7\] net1227 _3033_ VPWR VGND sg13g2_mux2_1
X_7887__123 VPWR VGND net123 sg13g2_tiehi
XFILLER_46_737 VPWR VGND sg13g2_decap_8
XFILLER_13_100 VPWR VGND sg13g2_fill_1
XFILLER_26_63 VPWR VGND sg13g2_decap_4
XFILLER_26_494 VPWR VGND sg13g2_decap_8
XFILLER_42_976 VPWR VGND sg13g2_decap_8
XFILLER_42_95 VPWR VGND sg13g2_decap_4
XFILLER_5_398 VPWR VGND sg13g2_fill_1
XFILLER_49_553 VPWR VGND sg13g2_decap_8
X_4960_ _0958_ net1472 net560 VPWR VGND sg13g2_nand2_1
X_4891_ _0900_ _0899_ net1491 VPWR VGND sg13g2_nand2b_1
XFILLER_32_420 VPWR VGND sg13g2_fill_1
XFILLER_32_442 VPWR VGND sg13g2_decap_4
X_6630_ VGND VPWR _2343_ _2463_ _2464_ net1289 sg13g2_a21oi_1
X_6561_ _3394_ _3512_ _2404_ VPWR VGND sg13g2_nor2_1
X_7803__213 VPWR VGND net213 sg13g2_tiehi
X_5512_ net1419 net1337 _1461_ VPWR VGND sg13g2_nor2b_1
X_6492_ s0.data_out\[8\]\[0\] s0.data_out\[9\]\[0\] net1306 _2338_ VPWR VGND sg13g2_mux2_1
X_5443_ net1420 _1389_ _1395_ VPWR VGND sg13g2_nor2_1
X_5374_ _1334_ _1332_ _1335_ VPWR VGND _1333_ sg13g2_nand3b_1
X_4325_ VGND VPWR _3372_ _0379_ _0121_ _0384_ sg13g2_a21oi_1
X_7113_ VPWR VGND _2897_ _2898_ _2890_ net1560 _2899_ _2883_ sg13g2_a221oi_1
X_4256_ _3620_ net1547 net512 VPWR VGND sg13g2_nand2_1
X_7044_ VGND VPWR _2842_ net1556 net396 sg13g2_or2_1
X_7810__206 VPWR VGND net206 sg13g2_tiehi
X_4187_ VGND VPWR net1621 net1545 _3554_ _3553_ sg13g2_a21oi_1
XFILLER_27_225 VPWR VGND sg13g2_fill_1
X_7946_ net59 VGND VPWR _0080_ s0.data_out\[2\]\[4\] clknet_leaf_8_clk sg13g2_dfrbpq_2
X_7877_ net134 VGND VPWR _0011_ s0.data_out\[8\]\[7\] clknet_leaf_14_clk sg13g2_dfrbpq_2
XFILLER_36_792 VPWR VGND sg13g2_fill_2
X_6828_ VPWR _0022_ net811 VGND sg13g2_inv_1
XFILLER_23_475 VPWR VGND sg13g2_fill_1
XFILLER_24_998 VPWR VGND sg13g2_decap_8
X_6759_ VGND VPWR net1279 _2578_ _2581_ _2580_ sg13g2_a21oi_1
XFILLER_10_136 VPWR VGND sg13g2_fill_2
XFILLER_3_814 VPWR VGND sg13g2_decap_8
XFILLER_5_4 VPWR VGND sg13g2_fill_1
Xhold170 _0252_ VPWR VGND net539 sg13g2_dlygate4sd3_1
Xfanout1615 net1616 net1615 VPWR VGND sg13g2_buf_8
XFILLER_2_379 VPWR VGND sg13g2_fill_1
Xhold192 _0198_ VPWR VGND net561 sg13g2_dlygate4sd3_1
Xfanout1604 net1620 net1604 VPWR VGND sg13g2_buf_8
Xhold181 _2743_ VPWR VGND net550 sg13g2_dlygate4sd3_1
Xfanout1626 net1 net1626 VPWR VGND sg13g2_buf_8
Xfanout1637 net1640 net1637 VPWR VGND sg13g2_buf_8
Xfanout1648 net1650 net1648 VPWR VGND sg13g2_buf_8
Xfanout1659 ui_in[5] net1659 VPWR VGND sg13g2_buf_8
XFILLER_19_748 VPWR VGND sg13g2_fill_1
XFILLER_15_910 VPWR VGND sg13g2_fill_2
XFILLER_15_943 VPWR VGND sg13g2_fill_1
XFILLER_6_652 VPWR VGND sg13g2_fill_1
XFILLER_2_880 VPWR VGND sg13g2_decap_8
X_5090_ VGND VPWR _1075_ _1074_ net1686 sg13g2_or2_1
X_4110_ VPWR _3486_ s0.data_out\[13\]\[2\] VGND sg13g2_inv_1
X_4041_ VPWR _3417_ net600 VGND sg13g2_inv_1
X_7800_ net216 VGND VPWR _0278_ s0.valid_out\[13\][0] clknet_leaf_21_clk sg13g2_dfrbpq_1
X_5992_ _1892_ VPWR _1893_ VGND net1381 _3484_ sg13g2_o21ai_1
X_4943_ net1475 _0825_ _0943_ VPWR VGND sg13g2_nor2_1
X_7731_ net291 VGND VPWR _0209_ s0.data_out\[19\]\[0\] clknet_leaf_29_clk sg13g2_dfrbpq_2
X_7662_ net366 VGND VPWR net776 s0.data_out\[25\]\[3\] clknet_leaf_0_clk sg13g2_dfrbpq_1
X_4874_ net1651 _0880_ _0883_ VPWR VGND sg13g2_nor2_1
X_6613_ _2447_ s0.data_out\[7\]\[1\] net1294 VPWR VGND sg13g2_nand2b_1
X_7593_ _3393_ net604 net1206 _3331_ VPWR VGND sg13g2_nand3_1
X_7955__308 VPWR VGND net308 sg13g2_tiehi
X_6544_ _2387_ _2388_ _2389_ _2390_ VPWR VGND sg13g2_or3_1
X_6475_ net1288 net1343 _2321_ VPWR VGND sg13g2_nor2b_1
X_5426_ net1609 _1348_ _1381_ VPWR VGND sg13g2_nor2_1
X_7738__284 VPWR VGND net284 sg13g2_tiehi
X_5357_ _1318_ net1436 net638 VPWR VGND sg13g2_nand2_1
X_4308_ net1550 VPWR _0370_ VGND _3610_ _0369_ sg13g2_o21ai_1
X_5288_ net1196 _3461_ _1258_ VPWR VGND sg13g2_nor2_1
X_7027_ VGND VPWR net1257 _2822_ _2825_ _2824_ sg13g2_a21oi_1
X_4239_ _3601_ net1535 _3602_ _3603_ VPWR VGND sg13g2_a21o_1
X_7884__126 VPWR VGND net126 sg13g2_tiehi
XFILLER_28_545 VPWR VGND sg13g2_decap_8
X_7929_ net77 VGND VPWR _0063_ s0.shift_out\[3\][0] clknet_leaf_2_clk sg13g2_dfrbpq_2
XFILLER_24_762 VPWR VGND sg13g2_decap_8
XFILLER_23_20 VPWR VGND sg13g2_decap_4
Xfanout1423 s0.shift_out\[16\][0] net1423 VPWR VGND sg13g2_buf_8
Xfanout1412 s0.valid_out\[15\][0] net1412 VPWR VGND sg13g2_buf_2
Xfanout1401 s0.valid_out\[14\][0] net1401 VPWR VGND sg13g2_buf_8
Xfanout1445 net1446 net1445 VPWR VGND sg13g2_buf_8
Xfanout1456 s0.shift_out\[19\][0] net1456 VPWR VGND sg13g2_buf_8
Xfanout1434 net481 net1434 VPWR VGND sg13g2_buf_8
Xfanout1467 net1468 net1467 VPWR VGND sg13g2_buf_1
Xfanout1489 net1494 net1489 VPWR VGND sg13g2_buf_1
Xfanout1478 net1479 net1478 VPWR VGND sg13g2_buf_2
XFILLER_47_865 VPWR VGND sg13g2_decap_8
XFILLER_46_364 VPWR VGND sg13g2_fill_2
XFILLER_19_578 VPWR VGND sg13g2_fill_1
XFILLER_14_272 VPWR VGND sg13g2_fill_2
X_7800__216 VPWR VGND net216 sg13g2_tiehi
X_4590_ _0621_ net1502 _0622_ _0623_ VPWR VGND sg13g2_a21o_1
XFILLER_7_961 VPWR VGND sg13g2_decap_8
X_6260_ _2136_ _2133_ _2137_ VPWR VGND _2135_ sg13g2_nand3b_1
X_6191_ _2072_ VPWR _2073_ VGND net1728 net709 sg13g2_o21ai_1
X_5211_ VGND VPWR _1184_ _1183_ net1686 sg13g2_or2_1
X_5142_ net1453 net1332 _1127_ VPWR VGND sg13g2_nor2b_1
X_5073_ _1060_ VPWR _1061_ VGND net1466 _0941_ sg13g2_o21ai_1
XFILLER_38_854 VPWR VGND sg13g2_fill_2
X_4024_ VPWR _3400_ net486 VGND sg13g2_inv_1
X_5975_ s0.data_out\[12\]\[0\] s0.data_out\[13\]\[0\] net1389 _1876_ VPWR VGND sg13g2_mux2_1
X_4926_ VPWR _0177_ _0929_ VGND sg13g2_inv_1
X_7714_ net310 VGND VPWR _0192_ s0.genblk1\[20\].modules.bubble clknet_leaf_35_clk
+ sg13g2_dfrbpq_1
X_7645_ net40 VGND VPWR _0123_ s0.genblk1\[25\].modules.bubble clknet_leaf_44_clk
+ sg13g2_dfrbpq_1
X_4857_ _0865_ VPWR _0866_ VGND _0856_ _0857_ sg13g2_o21ai_1
XFILLER_21_743 VPWR VGND sg13g2_decap_8
X_7576_ net1710 VPWR _3317_ VGND net1206 net1201 sg13g2_o21ai_1
X_6527_ _2373_ net1302 _2372_ VPWR VGND sg13g2_nand2b_1
X_4788_ _0805_ VPWR _0806_ VGND net1716 net678 sg13g2_o21ai_1
XFILLER_20_297 VPWR VGND sg13g2_fill_2
X_6458_ _0331_ _2306_ _2307_ _3501_ net1598 VPWR VGND sg13g2_a22oi_1
X_6389_ _2245_ net1303 _2246_ _2247_ VPWR VGND sg13g2_a21o_1
X_5409_ _1367_ VPWR _1368_ VGND net1732 net798 sg13g2_o21ai_1
X_7751__270 VPWR VGND net270 sg13g2_tiehi
XFILLER_28_342 VPWR VGND sg13g2_decap_8
XFILLER_44_835 VPWR VGND sg13g2_decap_8
XFILLER_43_389 VPWR VGND sg13g2_fill_1
XFILLER_24_570 VPWR VGND sg13g2_fill_1
XFILLER_4_975 VPWR VGND sg13g2_decap_8
Xfanout1231 net1234 net1231 VPWR VGND sg13g2_buf_8
Xfanout1220 net1221 net1220 VPWR VGND sg13g2_buf_1
XFILLER_38_117 VPWR VGND sg13g2_fill_2
Xfanout1253 net1254 net1253 VPWR VGND sg13g2_buf_2
Xfanout1242 net1244 net1242 VPWR VGND sg13g2_buf_1
Xfanout1264 s0.valid_out\[5\][0] net1264 VPWR VGND sg13g2_buf_8
Xfanout1286 s0.valid_out\[7\][0] net1286 VPWR VGND sg13g2_buf_8
Xfanout1275 s0.valid_out\[6\][0] net1275 VPWR VGND sg13g2_buf_8
Xfanout1297 s0.valid_out\[8\][0] net1297 VPWR VGND sg13g2_buf_8
XFILLER_19_320 VPWR VGND sg13g2_fill_1
XFILLER_47_662 VPWR VGND sg13g2_decap_8
XFILLER_46_161 VPWR VGND sg13g2_fill_1
XFILLER_35_846 VPWR VGND sg13g2_fill_1
X_5760_ VGND VPWR net1399 _1683_ _1685_ _1684_ sg13g2_a21oi_1
X_7728__294 VPWR VGND net294 sg13g2_tiehi
X_4711_ _0732_ net1495 s0.data_out\[22\]\[2\] VPWR VGND sg13g2_nand2_1
X_5691_ net1410 VPWR _1619_ VGND net1633 net1399 sg13g2_o21ai_1
X_7430_ VPWR _0078_ _3188_ VGND sg13g2_inv_1
X_4642_ net1676 _0642_ _0675_ VPWR VGND sg13g2_nor2_1
X_4573_ net1500 _0603_ _0609_ VPWR VGND sg13g2_nor2_1
X_7361_ s0.data_out\[1\]\[0\] s0.data_out\[2\]\[0\] net1226 _3123_ VPWR VGND sg13g2_mux2_1
X_6312_ _2181_ net1728 _2182_ VPWR VGND _2124_ sg13g2_nand3b_1
X_7292_ VGND VPWR _3051_ _3064_ _3066_ _3065_ sg13g2_a21oi_1
X_6243_ s0.data_out\[11\]\[6\] s0.data_out\[10\]\[6\] net1354 _2120_ VPWR VGND sg13g2_mux2_1
X_6174_ _0295_ _2058_ _2059_ _3490_ net1599 VPWR VGND sg13g2_a22oi_1
X_5125_ _1108_ net1454 _1109_ _1110_ VPWR VGND sg13g2_a21o_1
X_7735__287 VPWR VGND net287 sg13g2_tiehi
XFILLER_29_117 VPWR VGND sg13g2_decap_4
X_5056_ net1462 net492 _1048_ VPWR VGND sg13g2_and2_1
X_4007_ net1358 _3383_ VPWR VGND sg13g2_inv_4
XFILLER_38_1007 VPWR VGND sg13g2_decap_8
X_7881__129 VPWR VGND net129 sg13g2_tiehi
X_5958_ _1858_ VPWR _1859_ VGND net1378 _3486_ sg13g2_o21ai_1
X_4909_ net1479 net551 _0916_ VPWR VGND sg13g2_and2_1
X_5889_ _1802_ _3381_ _1801_ VPWR VGND sg13g2_nand2_1
X_7628_ net1710 net451 _3358_ VPWR VGND sg13g2_nor2_1
X_7559_ VPWR _0092_ _3303_ VGND sg13g2_inv_1
XFILLER_20_10 VPWR VGND sg13g2_fill_2
XFILLER_1_956 VPWR VGND sg13g2_decap_8
XFILLER_49_938 VPWR VGND sg13g2_decap_8
Xhold41 _0205_ VPWR VGND net410 sg13g2_dlygate4sd3_1
Xhold30 _0253_ VPWR VGND net399 sg13g2_dlygate4sd3_1
Xhold74 s0.data_out\[0\]\[4\] VPWR VGND net443 sg13g2_dlygate4sd3_1
Xhold52 _0229_ VPWR VGND net421 sg13g2_dlygate4sd3_1
Xhold63 s0.was_valid_out\[2\][0] VPWR VGND net432 sg13g2_dlygate4sd3_1
Xhold85 s0.valid_out\[27\][0] VPWR VGND net454 sg13g2_dlygate4sd3_1
Xhold96 s0.data_out\[16\]\[5\] VPWR VGND net465 sg13g2_dlygate4sd3_1
XFILLER_17_868 VPWR VGND sg13g2_fill_1
XFILLER_44_698 VPWR VGND sg13g2_fill_2
XFILLER_8_588 VPWR VGND sg13g2_fill_2
XFILLER_4_794 VPWR VGND sg13g2_decap_8
XFILLER_20_4 VPWR VGND sg13g2_fill_2
XFILLER_48_960 VPWR VGND sg13g2_decap_8
X_7689__337 VPWR VGND net337 sg13g2_tiehi
X_6930_ net1265 VPWR _2738_ VGND _2656_ _2737_ sg13g2_o21ai_1
X_6861_ VGND VPWR net1254 _2669_ _2671_ _2670_ sg13g2_a21oi_1
X_6792_ _2608_ VPWR _2614_ VGND _2600_ _2610_ sg13g2_o21ai_1
X_5812_ net1398 s0.data_out\[14\]\[6\] _1730_ VPWR VGND sg13g2_and2_1
X_5743_ VGND VPWR _1550_ _1667_ _1668_ net1409 sg13g2_a21oi_1
X_5674_ net1408 s0.data_out\[15\]\[4\] _1606_ VPWR VGND sg13g2_and2_1
X_4625_ _0658_ _0657_ net1648 _0650_ net1638 VPWR VGND sg13g2_a22oi_1
X_7741__280 VPWR VGND net280 sg13g2_tiehi
X_7413_ _3100_ VPWR _3175_ VGND _3151_ _3153_ sg13g2_o21ai_1
X_4556_ _0594_ VPWR _0595_ VGND net1714 net766 sg13g2_o21ai_1
X_7344_ s0.data_out\[2\]\[2\] s0.data_out\[1\]\[2\] net1217 _3106_ VPWR VGND sg13g2_mux2_1
XFILLER_2_709 VPWR VGND sg13g2_decap_4
X_4487_ net1509 net1320 _0532_ VPWR VGND sg13g2_nor2b_1
X_7275_ net1655 _3048_ _3049_ VPWR VGND sg13g2_nor2_1
X_6226_ net1313 net1350 _2103_ VPWR VGND sg13g2_nor2b_1
X_6157_ _2023_ _2045_ _2046_ VPWR VGND sg13g2_nor2b_1
X_5108_ net1452 net1161 _1093_ VPWR VGND sg13g2_nor2_1
XFILLER_46_919 VPWR VGND sg13g2_decap_8
X_6088_ _1975_ net1359 _1976_ _1977_ VPWR VGND sg13g2_a21o_1
XFILLER_39_993 VPWR VGND sg13g2_decap_8
X_5039_ _1034_ VPWR _1035_ VGND net1171 _1033_ sg13g2_o21ai_1
XFILLER_13_315 VPWR VGND sg13g2_fill_2
XFILLER_40_145 VPWR VGND sg13g2_decap_4
XFILLER_5_514 VPWR VGND sg13g2_fill_2
XFILLER_5_547 VPWR VGND sg13g2_fill_2
Xoutput7 net7 uo_out[4] VPWR VGND sg13g2_buf_1
XFILLER_1_753 VPWR VGND sg13g2_decap_8
XFILLER_49_735 VPWR VGND sg13g2_decap_8
XFILLER_36_429 VPWR VGND sg13g2_fill_2
XFILLER_45_963 VPWR VGND sg13g2_decap_8
XFILLER_17_643 VPWR VGND sg13g2_fill_2
X_4410_ net1577 _0398_ _0465_ VPWR VGND sg13g2_nor2_1
X_5390_ net1663 _1349_ _1351_ VPWR VGND sg13g2_nor2_1
X_7695__330 VPWR VGND net330 sg13g2_tiehi
X_4341_ VGND VPWR _3572_ _0397_ _0398_ net1543 sg13g2_a21oi_1
X_7648__37 VPWR VGND net37 sg13g2_tiehi
X_4272_ _3635_ VPWR _3636_ VGND net1665 _3633_ sg13g2_o21ai_1
XFILLER_4_580 VPWR VGND sg13g2_fill_1
X_7060_ net1250 VPWR _2854_ VGND _2795_ _2853_ sg13g2_o21ai_1
X_6011_ s0.data_out\[13\]\[6\] s0.data_out\[12\]\[6\] net1381 _1912_ VPWR VGND sg13g2_mux2_1
X_7962_ net217 VGND VPWR _0096_ s0.was_valid_out\[0\][0] clknet_leaf_10_clk sg13g2_dfrbpq_1
X_6913_ _2723_ _2714_ _2722_ VPWR VGND sg13g2_nand2_1
XFILLER_35_462 VPWR VGND sg13g2_fill_1
X_7893_ net116 VGND VPWR _0027_ s0.shift_out\[6\][0] clknet_leaf_16_clk sg13g2_dfrbpq_1
X_6844_ _2654_ net1260 net546 VPWR VGND sg13g2_nand2_1
X_3987_ VPWR _3363_ net422 VGND sg13g2_inv_1
X_6775_ s0.data_out\[6\]\[4\] s0.data_out\[7\]\[4\] net1284 _2597_ VPWR VGND sg13g2_mux2_1
X_5726_ net1697 _1634_ _1651_ VPWR VGND sg13g2_nor2_1
XFILLER_11_1021 VPWR VGND sg13g2_decap_8
X_5657_ net1404 s0.data_out\[15\]\[0\] _1593_ VPWR VGND sg13g2_and2_1
X_4608_ VGND VPWR _0519_ _0640_ _0641_ net1516 sg13g2_a21oi_1
X_5588_ net1686 _1524_ _1525_ VPWR VGND sg13g2_nor2_1
Xhold352 s0.data_out\[14\]\[6\] VPWR VGND net721 sg13g2_dlygate4sd3_1
X_4539_ net1512 s0.data_out\[24\]\[2\] _0581_ VPWR VGND sg13g2_and2_1
Xhold341 s0.data_out\[4\]\[0\] VPWR VGND net710 sg13g2_dlygate4sd3_1
X_7327_ net1182 _3538_ _3093_ VPWR VGND sg13g2_nor2_1
Xhold330 _3184_ VPWR VGND net699 sg13g2_dlygate4sd3_1
Xhold396 _0215_ VPWR VGND net765 sg13g2_dlygate4sd3_1
Xhold374 s0.data_out\[23\]\[4\] VPWR VGND net743 sg13g2_dlygate4sd3_1
Xhold363 _0584_ VPWR VGND net732 sg13g2_dlygate4sd3_1
Xhold385 s0.data_out\[22\]\[0\] VPWR VGND net754 sg13g2_dlygate4sd3_1
X_7258_ _3032_ net1226 net542 VPWR VGND sg13g2_nand2_1
X_6209_ net373 net1726 _0303_ VPWR VGND sg13g2_and2_1
X_7189_ VGND VPWR net1165 _2924_ _2970_ net1574 sg13g2_a21oi_1
XFILLER_46_716 VPWR VGND sg13g2_decap_8
Xclkbuf_3_6__f_clk clknet_0_clk clknet_3_6__leaf_clk VPWR VGND sg13g2_buf_8
XFILLER_27_985 VPWR VGND sg13g2_decap_8
XFILLER_42_955 VPWR VGND sg13g2_decap_8
XFILLER_45_760 VPWR VGND sg13g2_decap_8
XFILLER_18_985 VPWR VGND sg13g2_decap_8
X_4890_ s0.data_out\[21\]\[4\] s0.data_out\[22\]\[4\] net1497 _0899_ VPWR VGND sg13g2_mux2_1
XFILLER_33_933 VPWR VGND sg13g2_fill_2
XFILLER_33_988 VPWR VGND sg13g2_decap_8
XFILLER_20_627 VPWR VGND sg13g2_fill_2
X_6560_ _0337_ _2402_ _2403_ _3506_ net1596 VPWR VGND sg13g2_a22oi_1
X_5511_ _1457_ _1459_ net1661 _1460_ VPWR VGND sg13g2_nand3_1
X_6491_ _2337_ net1298 _2336_ VPWR VGND sg13g2_nand2b_1
X_5442_ _1391_ VPWR _1394_ VGND s0.was_valid_out\[16\][0] net1425 sg13g2_o21ai_1
X_5373_ VGND VPWR _1334_ _1331_ net1643 sg13g2_or2_1
X_4324_ net1704 VPWR _0384_ VGND _0381_ _0383_ sg13g2_o21ai_1
X_7112_ VGND VPWR _2887_ _2889_ _2898_ net1690 sg13g2_a21oi_1
X_7043_ _2839_ _2840_ _2841_ VPWR VGND sg13g2_nor2_1
X_4255_ net1549 _3617_ _3618_ _3619_ VPWR VGND sg13g2_nor3_1
XFILLER_41_1025 VPWR VGND sg13g2_decap_4
X_4186_ net1549 VPWR _3553_ VGND net1627 net1535 sg13g2_o21ai_1
XFILLER_27_237 VPWR VGND sg13g2_fill_2
X_7945_ net60 VGND VPWR net785 s0.data_out\[2\]\[3\] clknet_leaf_8_clk sg13g2_dfrbpq_1
X_7876_ net135 VGND VPWR net641 s0.data_out\[8\]\[6\] clknet_leaf_14_clk sg13g2_dfrbpq_2
XFILLER_35_270 VPWR VGND sg13g2_fill_1
X_6827_ _2641_ VPWR _2642_ VGND net1718 net810 sg13g2_o21ai_1
XFILLER_24_977 VPWR VGND sg13g2_decap_8
X_6758_ VGND VPWR _2474_ _2579_ _2580_ net1279 sg13g2_a21oi_1
XFILLER_6_108 VPWR VGND sg13g2_fill_2
X_5709_ VGND VPWR net1405 _1631_ _1634_ _1633_ sg13g2_a21oi_1
X_6689_ net1289 VPWR _2519_ VGND _2461_ _2518_ sg13g2_o21ai_1
XFILLER_3_848 VPWR VGND sg13g2_decap_8
Xhold171 s0.data_out\[24\]\[7\] VPWR VGND net540 sg13g2_dlygate4sd3_1
XFILLER_2_347 VPWR VGND sg13g2_fill_2
Xhold160 _0047_ VPWR VGND net529 sg13g2_dlygate4sd3_1
Xfanout1605 net1612 net1605 VPWR VGND sg13g2_buf_8
Xhold182 s0.data_out\[21\]\[1\] VPWR VGND net551 sg13g2_dlygate4sd3_1
Xhold193 s0.data_out\[8\]\[2\] VPWR VGND net562 sg13g2_dlygate4sd3_1
Xfanout1627 net1629 net1627 VPWR VGND sg13g2_buf_8
Xfanout1616 net1619 net1616 VPWR VGND sg13g2_buf_8
Xfanout1649 net1650 net1649 VPWR VGND sg13g2_buf_1
Xfanout1638 net1640 net1638 VPWR VGND sg13g2_buf_8
X_7635__51 VPWR VGND net51 sg13g2_tiehi
XFILLER_46_557 VPWR VGND sg13g2_fill_1
XFILLER_18_226 VPWR VGND sg13g2_fill_2
XFILLER_34_719 VPWR VGND sg13g2_fill_1
XFILLER_41_251 VPWR VGND sg13g2_fill_2
XFILLER_15_988 VPWR VGND sg13g2_decap_8
XFILLER_18_1027 VPWR VGND sg13g2_fill_2
X_7692__333 VPWR VGND net333 sg13g2_tiehi
X_4040_ VPWR _3416_ net670 VGND sg13g2_inv_1
X_5991_ _1892_ net1381 s0.data_out\[12\]\[4\] VPWR VGND sg13g2_nand2_1
X_4942_ _0940_ _0941_ _0942_ VPWR VGND sg13g2_nor2_2
X_7730_ net292 VGND VPWR _0208_ s0.shift_out\[19\][0] clknet_leaf_34_clk sg13g2_dfrbpq_2
X_7661_ net367 VGND VPWR _0139_ s0.data_out\[25\]\[2\] clknet_leaf_40_clk sg13g2_dfrbpq_2
X_4873_ VPWR _0882_ _0881_ VGND sg13g2_inv_1
X_6612_ _2444_ net1276 _2445_ _2446_ VPWR VGND sg13g2_a21o_1
XFILLER_33_796 VPWR VGND sg13g2_fill_1
X_7592_ _3330_ net1200 net1348 VPWR VGND sg13g2_nand2_1
X_7877__134 VPWR VGND net134 sg13g2_tiehi
X_6543_ net1679 _2349_ _2389_ VPWR VGND sg13g2_nor2_1
X_6474_ s0.data_out\[9\]\[2\] s0.data_out\[8\]\[2\] net1294 _2320_ VPWR VGND sg13g2_mux2_1
X_5425_ net1444 VPWR _1380_ VGND _1345_ _1379_ sg13g2_o21ai_1
XFILLER_0_829 VPWR VGND sg13g2_decap_8
X_5356_ _1316_ VPWR _1317_ VGND net1562 _1291_ sg13g2_o21ai_1
X_4307_ net1535 s0.data_out\[26\]\[6\] _0369_ VPWR VGND sg13g2_and2_1
X_5287_ _0210_ _1256_ _1257_ _3456_ net1608 VPWR VGND sg13g2_a22oi_1
X_7026_ VGND VPWR _2716_ _2823_ _2824_ net1257 sg13g2_a21oi_1
X_4238_ net1535 net1320 _3602_ VPWR VGND sg13g2_nor2b_1
X_7632__54 VPWR VGND net54 sg13g2_tiehi
X_4169_ s0.data_out\[27\]\[0\] net1159 _3545_ VPWR VGND sg13g2_nor2_1
XFILLER_43_516 VPWR VGND sg13g2_fill_2
X_7928_ net78 VGND VPWR _0062_ s0.genblk1\[2\].modules.bubble clknet_leaf_7_clk sg13g2_dfrbpq_1
X_7859_ net153 VGND VPWR net476 s0.data_out\[9\]\[1\] clknet_leaf_39_clk sg13g2_dfrbpq_2
XFILLER_48_1009 VPWR VGND sg13g2_decap_8
XFILLER_3_634 VPWR VGND sg13g2_fill_1
XFILLER_3_678 VPWR VGND sg13g2_fill_1
Xfanout1402 net1403 net1402 VPWR VGND sg13g2_buf_8
Xfanout1413 net1414 net1413 VPWR VGND sg13g2_buf_8
Xfanout1446 net403 net1446 VPWR VGND sg13g2_buf_8
Xfanout1457 s0.valid_out\[19\][0] net1457 VPWR VGND sg13g2_buf_8
Xfanout1435 net1439 net1435 VPWR VGND sg13g2_buf_8
Xfanout1424 net1427 net1424 VPWR VGND sg13g2_buf_8
Xfanout1479 net1480 net1479 VPWR VGND sg13g2_buf_1
Xfanout1468 net1469 net1468 VPWR VGND sg13g2_buf_8
XFILLER_47_844 VPWR VGND sg13g2_decap_8
XFILLER_31_1024 VPWR VGND sg13g2_decap_4
X_5210_ VGND VPWR net1456 _1180_ _1183_ _1182_ sg13g2_a21oi_1
X_6190_ _2071_ net1730 _2072_ VPWR VGND _2011_ sg13g2_nand3b_1
X_5141_ s0.data_out\[20\]\[5\] s0.data_out\[19\]\[5\] net1457 _1126_ VPWR VGND sg13g2_mux2_1
XFILLER_9_1014 VPWR VGND sg13g2_decap_8
X_5072_ _1060_ _1059_ _1058_ VPWR VGND sg13g2_nand2b_1
X_4023_ VPWR _3399_ net612 VGND sg13g2_inv_1
X_7713_ net311 VGND VPWR net545 s0.data_out\[21\]\[7\] clknet_leaf_36_clk sg13g2_dfrbpq_2
X_5974_ VGND VPWR net1369 _1873_ _1875_ _1874_ sg13g2_a21oi_1
X_4925_ _0928_ VPWR _0929_ VGND net1722 net415 sg13g2_o21ai_1
X_7644_ net41 VGND VPWR _0122_ s0.valid_out\[26\][0] clknet_leaf_45_clk sg13g2_dfrbpq_2
X_4856_ _0865_ _0864_ net1678 _0841_ net1688 VPWR VGND sg13g2_a22oi_1
X_7575_ VGND VPWR net504 _3393_ _3316_ net1627 sg13g2_a21oi_1
X_6526_ VGND VPWR net1293 _2370_ _2372_ _2371_ sg13g2_a21oi_1
X_4787_ _0804_ VPWR _0805_ VGND net1175 _0803_ sg13g2_o21ai_1
X_6457_ net1598 _2242_ _2307_ VPWR VGND sg13g2_nor2_1
X_7890__120 VPWR VGND net120 sg13g2_tiehi
X_6388_ net1303 net1327 _2246_ VPWR VGND sg13g2_nor2b_1
XFILLER_0_604 VPWR VGND sg13g2_fill_1
X_5408_ _1366_ VPWR _1367_ VGND net1196 _1365_ sg13g2_o21ai_1
X_5339_ s0.data_out\[18\]\[0\] s0.data_out\[17\]\[0\] net1435 _1300_ VPWR VGND sg13g2_mux2_1
XFILLER_0_659 VPWR VGND sg13g2_decap_8
XFILLER_18_21 VPWR VGND sg13g2_fill_1
X_7009_ VGND VPWR _2696_ _2806_ _2807_ net1251 sg13g2_a21oi_1
XFILLER_44_814 VPWR VGND sg13g2_decap_8
XFILLER_16_505 VPWR VGND sg13g2_fill_2
XFILLER_29_877 VPWR VGND sg13g2_fill_2
XFILLER_4_954 VPWR VGND sg13g2_decap_8
Xfanout1232 net1234 net1232 VPWR VGND sg13g2_buf_8
Xfanout1221 s0.shift_out\[2\][0] net1221 VPWR VGND sg13g2_buf_1
Xfanout1210 net1211 net1210 VPWR VGND sg13g2_buf_8
XFILLER_22_8 VPWR VGND sg13g2_fill_2
Xfanout1265 net1267 net1265 VPWR VGND sg13g2_buf_8
Xfanout1254 net1255 net1254 VPWR VGND sg13g2_buf_1
Xfanout1243 net1244 net1243 VPWR VGND sg13g2_buf_8
XFILLER_47_641 VPWR VGND sg13g2_decap_8
Xfanout1276 net1277 net1276 VPWR VGND sg13g2_buf_8
Xfanout1287 net1288 net1287 VPWR VGND sg13g2_buf_2
Xfanout1298 net1299 net1298 VPWR VGND sg13g2_buf_2
X_7867__144 VPWR VGND net144 sg13g2_tiehi
XFILLER_35_814 VPWR VGND sg13g2_fill_2
X_4710_ VPWR VGND _0730_ net1701 _0726_ net1694 _0731_ _0724_ sg13g2_a221oi_1
X_5690_ _0252_ _1617_ _1618_ _3466_ net1618 VPWR VGND sg13g2_a22oi_1
X_4641_ _0674_ _0673_ net1658 _0667_ net1667 VPWR VGND sg13g2_a22oi_1
XFILLER_30_552 VPWR VGND sg13g2_fill_1
X_4572_ VGND VPWR _0608_ _0607_ _0605_ sg13g2_or2_1
X_7360_ VGND VPWR net1210 _3120_ _3122_ _3121_ sg13g2_a21oi_1
X_6311_ net1361 VPWR _2181_ VGND _2121_ _2180_ sg13g2_o21ai_1
X_7874__137 VPWR VGND net137 sg13g2_tiehi
X_7291_ _2986_ VPWR _3065_ VGND _3039_ _3040_ sg13g2_o21ai_1
X_6242_ _2119_ net1354 net626 VPWR VGND sg13g2_nand2_1
XFILLER_41_0 VPWR VGND sg13g2_decap_4
X_6173_ net1599 _1979_ _2059_ VPWR VGND sg13g2_nor2_1
X_5124_ net1454 net1323 _1109_ VPWR VGND sg13g2_nor2b_1
X_5055_ VPWR _0188_ _1047_ VGND sg13g2_inv_1
X_4006_ VPWR _3382_ net1384 VGND sg13g2_inv_1
XFILLER_37_195 VPWR VGND sg13g2_fill_1
XFILLER_13_508 VPWR VGND sg13g2_fill_2
X_5957_ _1858_ net1378 net749 VPWR VGND sg13g2_nand2_1
XFILLER_40_327 VPWR VGND sg13g2_fill_2
X_4908_ VPWR _0173_ _0915_ VGND sg13g2_inv_1
X_7627_ net494 _3319_ net1709 _0106_ VPWR VGND sg13g2_mux2_1
X_5888_ _1691_ VPWR _1801_ VGND net1401 _3484_ sg13g2_o21ai_1
X_4839_ VGND VPWR _0718_ _0847_ _0848_ net1492 sg13g2_a21oi_1
X_7558_ _3302_ VPWR _3303_ VGND net1712 net566 sg13g2_o21ai_1
X_6509_ _2355_ s0.data_out\[8\]\[7\] net1308 VPWR VGND sg13g2_nand2b_1
X_7489_ VGND VPWR net1204 _3237_ _3239_ _3238_ sg13g2_a21oi_1
XFILLER_4_228 VPWR VGND sg13g2_fill_1
XFILLER_1_935 VPWR VGND sg13g2_decap_8
XFILLER_49_917 VPWR VGND sg13g2_decap_8
XFILLER_0_434 VPWR VGND sg13g2_decap_8
XFILLER_0_445 VPWR VGND sg13g2_fill_2
Xhold31 s0.was_valid_out\[21\][0] VPWR VGND net400 sg13g2_dlygate4sd3_1
Xhold20 s0.genblk1\[16\].modules.bubble VPWR VGND net389 sg13g2_dlygate4sd3_1
Xhold53 s0.was_valid_out\[6\][0] VPWR VGND net422 sg13g2_dlygate4sd3_1
Xhold42 s0.was_valid_out\[22\][0] VPWR VGND net411 sg13g2_dlygate4sd3_1
Xhold64 _0072_ VPWR VGND net433 sg13g2_dlygate4sd3_1
Xhold86 _3571_ VPWR VGND net455 sg13g2_dlygate4sd3_1
Xhold97 _1580_ VPWR VGND net466 sg13g2_dlygate4sd3_1
XFILLER_21_1012 VPWR VGND sg13g2_decap_8
XFILLER_28_140 VPWR VGND sg13g2_fill_1
Xhold75 s0.shift_out\[14\][0] VPWR VGND net444 sg13g2_dlygate4sd3_1
XFILLER_28_195 VPWR VGND sg13g2_fill_1
XFILLER_31_305 VPWR VGND sg13g2_fill_1
XFILLER_8_523 VPWR VGND sg13g2_decap_8
XFILLER_39_405 VPWR VGND sg13g2_fill_1
XFILLER_0_990 VPWR VGND sg13g2_decap_8
X_6860_ net1253 net1341 _2670_ VPWR VGND sg13g2_nor2b_1
XFILLER_34_110 VPWR VGND sg13g2_fill_1
X_7880__130 VPWR VGND net130 sg13g2_tiehi
X_6791_ _2592_ _2608_ _2611_ _2612_ _2613_ VPWR VGND sg13g2_and4_1
X_5811_ VPWR _0262_ _1729_ VGND sg13g2_inv_1
X_5742_ _1667_ s0.data_out\[14\]\[7\] net1413 VPWR VGND sg13g2_nand2b_1
X_5673_ _0248_ _1604_ _1605_ _3469_ net1617 VPWR VGND sg13g2_a22oi_1
X_4624_ VGND VPWR net1513 _0654_ _0657_ _0656_ sg13g2_a21oi_1
X_7412_ _3161_ _3162_ _3171_ _3173_ _3174_ VPWR VGND sg13g2_nor4_1
X_4555_ _0593_ VPWR _0594_ VGND net1177 _0592_ sg13g2_o21ai_1
X_7343_ net1704 net383 _0074_ VPWR VGND sg13g2_and2_1
X_4486_ s0.data_out\[25\]\[7\] s0.data_out\[24\]\[7\] net1518 _0531_ VPWR VGND sg13g2_mux2_1
X_7274_ VGND VPWR net1233 _3045_ _3048_ _3047_ sg13g2_a21oi_1
X_6225_ s0.data_out\[11\]\[0\] s0.data_out\[10\]\[0\] net1353 _2102_ VPWR VGND sg13g2_mux2_1
X_6156_ _2031_ VPWR _2045_ VGND _2041_ _2042_ sg13g2_o21ai_1
X_5107_ _1091_ VPWR _1092_ VGND net1457 _3448_ sg13g2_o21ai_1
XFILLER_39_972 VPWR VGND sg13g2_decap_8
X_6087_ net1359 net1342 _1976_ VPWR VGND sg13g2_nor2b_1
X_5038_ VGND VPWR net1171 _0962_ _1034_ net1595 sg13g2_a21oi_1
XFILLER_25_143 VPWR VGND sg13g2_fill_2
X_6989_ VGND VPWR net1241 _2785_ _2787_ _2786_ sg13g2_a21oi_1
XFILLER_25_198 VPWR VGND sg13g2_fill_1
XFILLER_40_168 VPWR VGND sg13g2_decap_4
XFILLER_40_157 VPWR VGND sg13g2_fill_1
XFILLER_22_850 VPWR VGND sg13g2_fill_2
XFILLER_31_87 VPWR VGND sg13g2_fill_1
Xoutput10 net10 uo_out[7] VPWR VGND sg13g2_buf_1
X_7657__27 VPWR VGND net27 sg13g2_tiehi