*SPEF "ieee 1481-1999"
*DESIGN "heichips25_template"
*DATE "17:08:36 Wednesday August 13, 2025"
*VENDOR "The OpenROAD Project"
*PROGRAM "OpenROAD"
*VERSION "341650e72dad0dc8571822ff8c5d9c5e365327f7"
*DESIGN_FLOW "NAME_SCOPE LOCAL" "PIN_CAP NONE"
*DIVIDER /
*DELIMITER :
*BUS_DELIMITER []
*T_UNIT 1 NS
*C_UNIT 1 PF
*R_UNIT 1 OHM
*L_UNIT 1 HENRY

*NAME_MAP
*3 clk
*4 ena
*5 rst_n
*6 ui_in[0]
*7 ui_in[1]
*8 ui_in[2]
*9 ui_in[3]
*10 ui_in[4]
*11 ui_in[5]
*12 ui_in[6]
*13 ui_in[7]
*14 uio_in[0]
*15 uio_in[1]
*16 uio_in[2]
*17 uio_in[3]
*18 uio_in[4]
*19 uio_in[5]
*20 uio_in[6]
*21 uio_in[7]
*22 uio_oe[0]
*23 uio_oe[1]
*24 uio_oe[2]
*25 uio_oe[3]
*26 uio_oe[4]
*27 uio_oe[5]
*28 uio_oe[6]
*29 uio_oe[7]
*30 uio_out[0]
*31 uio_out[1]
*32 uio_out[2]
*33 uio_out[3]
*34 uio_out[4]
*35 uio_out[5]
*36 uio_out[6]
*37 uio_out[7]
*38 uo_out[0]
*39 uo_out[1]
*40 uo_out[2]
*41 uo_out[3]
*42 uo_out[4]
*43 uo_out[5]
*44 net33
*45 net34
*46 _0001_
*47 _0002_
*48 _0003_
*49 _0004_
*50 _0005_
*51 _0018_
*52 _0019_
*53 _0020_
*54 _0021_
*55 _0022_
*56 _0023_
*57 _0024_
*58 _0025_
*59 _0026_
*60 _0027_
*61 _0028_
*62 _0029_
*63 _0030_
*64 _0031_
*65 _0032_
*66 _0033_
*67 _0034_
*68 _0035_
*69 _0036_
*70 _0037_
*71 _0038_
*72 _0039_
*73 _0040_
*74 _0041_
*75 _0042_
*76 _0043_
*77 _0044_
*78 _0045_
*79 _0046_
*80 _0047_
*81 _0048_
*82 _0049_
*83 _0050_
*84 _0051_
*85 _0052_
*86 _0053_
*87 _0054_
*88 _0055_
*89 _0056_
*90 _0057_
*91 _0058_
*92 _0059_
*93 _0060_
*94 _0061_
*95 _0062_
*96 _0063_
*97 _0064_
*98 _0065_
*99 _0066_
*100 _0067_
*101 _0068_
*102 _0069_
*103 _0070_
*104 _0071_
*105 _0072_
*106 _0073_
*107 _0074_
*108 _0075_
*109 _0076_
*110 _0077_
*111 _0078_
*112 _0079_
*113 _0080_
*114 _0081_
*115 _0082_
*116 _0083_
*117 _0084_
*118 _0085_
*119 _0086_
*120 _0087_
*121 _0088_
*122 _0089_
*123 _0090_
*124 _0091_
*125 _0092_
*126 _0093_
*127 _0094_
*128 _0095_
*129 _0096_
*130 _0097_
*131 _0098_
*132 _0099_
*133 _0100_
*134 _0101_
*135 _0102_
*136 _0103_
*137 _0104_
*138 _0105_
*139 _0106_
*140 _0107_
*141 _0108_
*142 _0109_
*143 _0110_
*144 _0111_
*145 _0112_
*146 _0113_
*147 _0114_
*148 _0115_
*149 _0116_
*150 _0117_
*151 _0118_
*152 _0119_
*153 _0120_
*154 _0121_
*155 _0122_
*156 _0123_
*157 _0124_
*158 _0125_
*159 _0126_
*160 _0127_
*161 _0128_
*162 _0129_
*163 _0130_
*164 _0131_
*165 _0132_
*166 _0133_
*167 _0134_
*168 _0135_
*169 _0136_
*170 _0137_
*171 _0138_
*172 _0139_
*173 _0140_
*174 _0141_
*175 _0142_
*176 _0143_
*177 _0144_
*178 _0145_
*179 _0146_
*180 _0147_
*181 _0148_
*182 _0149_
*183 _0150_
*184 _0151_
*185 _0152_
*186 _0153_
*187 _0154_
*188 _0155_
*189 _0156_
*190 _0157_
*191 _0158_
*192 _0159_
*193 _0160_
*194 _0161_
*195 _0162_
*196 _0163_
*197 _0164_
*198 _0165_
*199 _0166_
*200 _0167_
*201 _0168_
*202 _0169_
*203 _0170_
*204 _0171_
*205 _0172_
*206 _0173_
*207 _0174_
*208 _0175_
*209 _0176_
*210 _0177_
*211 _0178_
*212 _0179_
*213 _0180_
*214 _0181_
*215 _0182_
*216 _0183_
*217 _0184_
*218 _0185_
*219 _0186_
*220 _0187_
*221 _0188_
*222 _0189_
*223 _0190_
*224 _0191_
*225 _0192_
*226 _0193_
*227 _0194_
*228 _0195_
*229 _0196_
*230 _0197_
*231 _0198_
*232 _0199_
*233 _0200_
*234 _0201_
*235 _0202_
*236 _0203_
*237 _0204_
*238 _0205_
*239 _0206_
*240 _0207_
*241 _0208_
*242 _0209_
*243 _0210_
*244 _0211_
*245 _0212_
*246 _0213_
*247 _0214_
*248 _0215_
*249 _0216_
*250 _0217_
*251 _0218_
*252 _0219_
*253 _0220_
*254 _0221_
*255 _0222_
*256 _0223_
*257 _0224_
*258 _0225_
*259 _0226_
*260 _0227_
*261 _0228_
*262 _0229_
*263 _0230_
*264 _0231_
*265 _0232_
*266 _0233_
*267 _0234_
*268 _0235_
*269 _0236_
*270 _0237_
*271 _0238_
*272 _0239_
*273 _0240_
*274 _0241_
*275 _0242_
*276 _0243_
*277 _0244_
*278 _0245_
*279 _0246_
*280 _0247_
*281 _0248_
*282 _0249_
*283 _0250_
*284 _0251_
*285 _0252_
*286 _0253_
*287 _0254_
*288 _0255_
*289 _0256_
*290 _0257_
*291 _0258_
*292 _0259_
*293 _0260_
*294 _0261_
*295 _0262_
*296 _0263_
*297 _0264_
*298 _0265_
*299 _0266_
*300 _0267_
*301 _0268_
*302 _0269_
*303 _0270_
*304 _0271_
*305 _0272_
*306 _0273_
*307 _0274_
*308 _0275_
*309 _0276_
*310 _0277_
*311 _0278_
*312 _0279_
*313 _0280_
*314 _0281_
*315 _0282_
*316 _0283_
*317 _0284_
*318 _0285_
*319 _0286_
*320 _0287_
*321 _0288_
*322 _0289_
*323 _0290_
*324 _0291_
*325 _0292_
*326 _0293_
*327 _0294_
*328 _0295_
*329 _0296_
*330 _0297_
*331 _0298_
*332 _0299_
*333 _0300_
*334 _0301_
*335 _0302_
*336 _0303_
*337 _0304_
*338 _0305_
*339 _0306_
*340 _0307_
*341 _0308_
*342 _0309_
*343 _0310_
*344 _0311_
*345 _0312_
*346 _0313_
*347 _0314_
*348 _0315_
*349 _0316_
*350 _0317_
*351 _0318_
*352 _0319_
*353 _0320_
*354 _0321_
*355 _0322_
*356 _0323_
*357 _0324_
*358 _0325_
*359 _0326_
*360 _0327_
*361 _0328_
*362 _0329_
*363 _0330_
*364 _0331_
*365 _0332_
*366 _0333_
*367 _0334_
*368 _0335_
*369 _0336_
*370 _0337_
*371 _0338_
*372 _0339_
*373 _0340_
*374 _0341_
*375 _0342_
*376 _0343_
*377 _0344_
*378 _0345_
*379 _0346_
*380 _0347_
*381 _0348_
*382 _0349_
*383 _0350_
*384 _0351_
*385 _0352_
*386 _0353_
*387 _0354_
*388 _0355_
*389 _0356_
*390 _0357_
*391 _0358_
*392 _0359_
*393 _0360_
*394 _0361_
*395 _0362_
*396 _0363_
*397 _0364_
*398 _0365_
*399 _0366_
*400 _0367_
*401 _0368_
*402 _0369_
*403 _0370_
*404 _0371_
*405 _0372_
*406 _0373_
*407 _0374_
*408 _0375_
*409 _0376_
*410 _0377_
*411 _0378_
*412 _0379_
*413 _0380_
*414 _0381_
*415 _0382_
*416 _0383_
*417 _0384_
*418 _0385_
*419 _0386_
*420 _0387_
*421 _0388_
*422 _0389_
*423 _0390_
*424 _0391_
*425 _0392_
*426 _0393_
*427 _0394_
*428 _0395_
*429 _0396_
*430 _0397_
*431 _0398_
*432 _0399_
*433 _0400_
*434 _0401_
*435 _0402_
*436 _0403_
*437 _0404_
*438 _0405_
*439 _0406_
*440 _0407_
*441 _0408_
*442 _0409_
*443 _0410_
*444 _0411_
*445 _0412_
*446 _0413_
*447 _0414_
*448 _0415_
*449 _0416_
*450 _0417_
*451 _0418_
*452 _0419_
*453 _0420_
*454 _0421_
*455 _0422_
*456 _0423_
*457 _0424_
*458 _0425_
*459 _0426_
*460 _0427_
*461 _0428_
*462 _0429_
*463 _0430_
*464 _0431_
*465 _0432_
*466 _0433_
*467 _0434_
*468 _0435_
*469 _0436_
*470 _0437_
*471 _0438_
*472 _0439_
*473 _0440_
*474 _0441_
*475 _0442_
*476 _0443_
*477 _0444_
*478 _0445_
*479 _0446_
*480 _0447_
*481 _0448_
*482 _0449_
*483 _0450_
*484 _0451_
*485 _0452_
*486 _0453_
*487 _0454_
*488 _0455_
*489 _0456_
*490 _0457_
*491 _0458_
*492 _0459_
*493 _0460_
*494 _0461_
*495 _0462_
*496 _0463_
*497 _0464_
*498 _0465_
*499 _0466_
*500 _0467_
*501 _0468_
*502 _0469_
*503 _0470_
*504 _0471_
*505 _0472_
*506 _0473_
*507 _0474_
*508 _0475_
*509 _0476_
*510 _0477_
*511 _0478_
*512 _0479_
*513 _0480_
*514 _0481_
*515 _0482_
*516 _0483_
*517 _0484_
*518 _0485_
*519 _0486_
*520 _0487_
*521 _0488_
*522 _0489_
*523 _0490_
*524 _0491_
*525 _0492_
*526 _0493_
*527 _0494_
*528 _0495_
*529 _0496_
*530 _0497_
*531 _0498_
*532 _0499_
*533 _0500_
*534 _0501_
*535 _0502_
*536 _0503_
*537 _0504_
*538 _0505_
*539 _0506_
*540 _0507_
*541 _0508_
*542 _0509_
*543 _0510_
*544 _0511_
*545 _0512_
*546 _0513_
*547 _0514_
*548 _0515_
*549 _0516_
*550 _0517_
*551 _0518_
*552 _0519_
*553 _0520_
*554 _0521_
*555 _0522_
*556 _0523_
*557 _0524_
*558 _0525_
*559 _0526_
*560 _0527_
*561 _0528_
*562 _0529_
*563 _0530_
*564 _0531_
*565 _0532_
*566 _0533_
*567 _0534_
*568 _0535_
*569 _0536_
*570 _0537_
*571 _0538_
*572 _0539_
*573 _0540_
*574 _0541_
*575 _0542_
*576 _0543_
*577 _0544_
*578 _0545_
*579 _0546_
*580 _0547_
*581 _0548_
*582 _0549_
*583 _0550_
*584 _0551_
*585 _0552_
*586 _0553_
*587 _0554_
*588 _0555_
*589 _0556_
*590 _0557_
*591 _0558_
*592 _0559_
*593 _0560_
*594 _0561_
*595 _0562_
*596 _0563_
*597 _0564_
*598 _0565_
*599 _0566_
*600 _0567_
*601 _0568_
*602 _0569_
*603 _0570_
*604 _0571_
*605 _0572_
*606 _0573_
*607 _0574_
*608 _0575_
*609 _0576_
*610 _0577_
*611 _0578_
*612 _0579_
*613 _0580_
*614 _0581_
*615 _0582_
*616 _0583_
*617 _0584_
*618 _0585_
*619 _0586_
*620 _0587_
*621 _0588_
*622 _0589_
*623 _0590_
*624 _0591_
*625 _0592_
*626 _0593_
*627 _0594_
*628 _0595_
*629 _0596_
*630 _0597_
*631 _0598_
*632 _0599_
*633 _0600_
*634 _0601_
*635 _0602_
*636 _0603_
*637 _0604_
*638 _0605_
*639 _0606_
*640 _0607_
*641 _0608_
*642 _0609_
*643 _0610_
*644 _0611_
*645 _0612_
*646 _0613_
*647 _0614_
*648 _0615_
*649 _0616_
*650 _0617_
*651 _0618_
*652 _0619_
*653 _0620_
*654 _0621_
*655 _0622_
*656 _0623_
*657 _0624_
*658 _0625_
*659 _0626_
*660 _0627_
*661 _0628_
*662 _0629_
*663 _0630_
*664 _0631_
*665 _0632_
*666 _0633_
*667 _0634_
*668 _0635_
*669 _0636_
*670 _0637_
*671 _0638_
*672 _0639_
*673 _0640_
*674 _0641_
*675 _0642_
*676 _0643_
*677 _0644_
*678 _0645_
*679 _0646_
*680 _0647_
*681 _0648_
*682 _0649_
*683 _0650_
*684 _0651_
*685 _0652_
*686 _0653_
*687 _0654_
*688 _0655_
*689 _0656_
*690 _0657_
*691 _0658_
*692 _0659_
*693 _0660_
*694 _0661_
*695 _0662_
*696 _0663_
*697 _0664_
*698 _0665_
*699 _0666_
*700 _0667_
*701 _0668_
*702 _0669_
*703 _0670_
*704 _0671_
*705 _0672_
*706 _0673_
*707 _0674_
*708 _0675_
*709 _0676_
*710 _0677_
*711 _0678_
*712 _0679_
*713 _0680_
*714 _0681_
*715 _0682_
*716 _0683_
*717 _0684_
*718 _0685_
*719 _0686_
*720 _0687_
*721 _0688_
*722 _0689_
*723 _0690_
*724 _0691_
*725 _0692_
*726 _0693_
*727 _0694_
*728 _0695_
*729 _0696_
*730 _0697_
*731 _0698_
*732 _0699_
*733 _0700_
*734 _0701_
*735 _0702_
*736 _0703_
*737 _0704_
*738 _0705_
*739 _0706_
*740 _0707_
*741 _0708_
*742 _0709_
*743 _0710_
*744 _0711_
*745 _0712_
*746 _0713_
*747 _0714_
*748 _0715_
*749 _0716_
*750 _0717_
*751 _0718_
*752 _0719_
*753 _0720_
*754 _0721_
*755 _0722_
*756 _0723_
*757 _0724_
*758 _0725_
*759 _0726_
*760 _0727_
*761 _0728_
*762 _0729_
*763 _0730_
*764 _0731_
*765 _0732_
*766 _0733_
*767 _0734_
*768 _0735_
*769 _0736_
*770 _0737_
*771 _0738_
*772 _0739_
*773 _0740_
*774 _0741_
*775 _0742_
*776 _0743_
*777 _0744_
*778 _0745_
*779 _0746_
*780 _0747_
*781 _0748_
*782 _0749_
*783 _0750_
*784 _0751_
*785 _0752_
*786 _0753_
*787 _0754_
*788 _0755_
*789 _0756_
*790 _0757_
*791 _0758_
*792 _0759_
*793 _0760_
*794 _0761_
*795 _0762_
*796 _0763_
*797 _0764_
*798 _0765_
*799 _0766_
*800 _0767_
*801 _0768_
*802 _0769_
*803 _0770_
*804 _0771_
*805 _0772_
*806 _0773_
*807 _0774_
*808 _0775_
*809 _0776_
*810 _0777_
*811 _0778_
*812 _0779_
*813 _0780_
*814 _0781_
*815 _0782_
*816 _0783_
*817 _0784_
*818 _0785_
*819 _0786_
*820 _0787_
*821 _0788_
*822 _0789_
*823 _0790_
*824 _0791_
*825 _0792_
*826 _0793_
*827 _0794_
*828 _0795_
*829 _0796_
*830 _0797_
*831 _0798_
*832 _0799_
*833 _0800_
*834 _0801_
*835 _0802_
*836 _0803_
*837 _0804_
*838 _0805_
*839 _0806_
*840 _0807_
*841 _0808_
*842 _0809_
*843 _0810_
*844 _0811_
*845 _0812_
*846 _0813_
*847 _0814_
*848 _0815_
*849 _0816_
*850 _0817_
*851 _0818_
*852 _0819_
*853 _0820_
*854 _0821_
*855 _0822_
*856 _0823_
*857 _0824_
*858 _0825_
*859 _0826_
*860 _0827_
*861 _0828_
*862 _0829_
*863 _0830_
*864 _0831_
*865 _0832_
*866 _0833_
*867 _0834_
*868 _0835_
*869 _0836_
*870 _0837_
*871 _0838_
*872 _0839_
*873 _0840_
*874 _0841_
*875 _0842_
*876 _0843_
*877 _0844_
*878 _0845_
*879 _0846_
*880 _0847_
*881 _0848_
*882 _0849_
*883 _0850_
*884 _0851_
*885 _0852_
*886 _0853_
*887 _0854_
*888 _0855_
*889 _0856_
*890 _0857_
*891 _0858_
*892 _0859_
*893 _0860_
*894 _0861_
*895 _0862_
*896 _0863_
*897 _0864_
*898 _0865_
*899 _0866_
*900 _0867_
*901 _0868_
*902 _0869_
*903 _0870_
*904 _0871_
*905 _0872_
*906 _0873_
*907 _0874_
*908 _0875_
*909 _0876_
*910 _0877_
*911 _0878_
*912 _0879_
*913 _0880_
*914 _0881_
*915 _0882_
*916 _0883_
*917 _0884_
*918 _0885_
*919 _0886_
*920 _0887_
*921 _0888_
*922 _0889_
*923 _0890_
*924 _0891_
*925 _0892_
*926 _0893_
*927 _0894_
*928 _0895_
*929 _0896_
*930 _0897_
*931 _0898_
*932 _0899_
*933 _0900_
*934 _0901_
*935 _0902_
*936 _0903_
*937 _0904_
*938 _0905_
*939 _0906_
*940 _0907_
*941 _0908_
*942 _0909_
*943 _0910_
*944 _0911_
*945 _0912_
*946 _0913_
*947 _0914_
*948 _0915_
*949 _0916_
*950 _0917_
*951 _0918_
*952 _0919_
*953 _0920_
*954 _0921_
*955 _0922_
*956 _0923_
*957 _0924_
*958 _0925_
*959 _0926_
*960 _0927_
*961 _0928_
*962 _0929_
*963 _0930_
*964 _0931_
*965 _0932_
*966 _0933_
*967 _0934_
*968 _0935_
*969 _0936_
*970 _0937_
*971 _0938_
*972 _0939_
*973 _0940_
*974 _0941_
*975 _0942_
*976 _0943_
*977 _0944_
*978 _0945_
*979 _0946_
*980 _0947_
*981 _0948_
*982 _0949_
*983 _0950_
*984 _0951_
*985 _0952_
*986 _0953_
*987 _0954_
*988 _0955_
*989 _0956_
*990 _0957_
*991 _0958_
*992 _0959_
*993 _0960_
*994 _0961_
*995 _0962_
*996 _0963_
*997 _0964_
*998 _0965_
*999 _0966_
*1000 _0967_
*1001 _0968_
*1002 _0969_
*1003 _0970_
*1004 _0971_
*1005 _0972_
*1006 _0973_
*1007 _0974_
*1008 _0975_
*1009 _0976_
*1010 _0977_
*1011 _0978_
*1012 _0979_
*1013 _0980_
*1014 _0981_
*1015 _0982_
*1016 _0983_
*1017 _0984_
*1018 _0985_
*1019 _0986_
*1020 _0987_
*1021 _0988_
*1022 _0989_
*1023 _0990_
*1024 _0991_
*1025 _0992_
*1026 _0993_
*1027 _0994_
*1028 _0995_
*1029 _0996_
*1030 _0997_
*1031 _0998_
*1032 _0999_
*1033 _1000_
*1034 _1001_
*1035 _1002_
*1036 _1003_
*1037 _1004_
*1038 _1005_
*1039 _1006_
*1040 _1007_
*1041 _1008_
*1042 _1009_
*1043 _1010_
*1044 _1011_
*1045 _1012_
*1046 _1013_
*1047 _1014_
*1048 _1015_
*1049 _1016_
*1050 _1017_
*1051 _1018_
*1052 _1019_
*1053 _1020_
*1054 _1021_
*1055 _1022_
*1056 _1023_
*1057 _1024_
*1058 _1025_
*1059 _1026_
*1060 _1027_
*1061 _1028_
*1062 _1029_
*1063 _1030_
*1064 _1031_
*1065 _1032_
*1066 _1033_
*1067 _1034_
*1068 _1035_
*1069 _1036_
*1070 _1037_
*1071 _1038_
*1072 _1039_
*1073 _1040_
*1074 _1041_
*1075 _1042_
*1076 _1043_
*1077 _1044_
*1078 _1045_
*1079 _1046_
*1080 _1047_
*1081 _1048_
*1082 _1049_
*1083 _1050_
*1084 _1051_
*1085 _1052_
*1086 _1053_
*1087 _1054_
*1088 _1055_
*1089 _1056_
*1090 _1057_
*1091 _1058_
*1092 _1059_
*1093 _1060_
*1094 _1061_
*1095 _1062_
*1096 _1063_
*1097 _1064_
*1098 _1065_
*1099 _1066_
*1100 _1067_
*1101 _1068_
*1102 _1069_
*1103 _1070_
*1104 _1071_
*1105 _1072_
*1106 _1073_
*1107 _1074_
*1108 _1075_
*1109 _1076_
*1110 _1077_
*1111 _1078_
*1112 _1079_
*1113 _1080_
*1114 _1081_
*1115 _1082_
*1116 _1083_
*1117 _1084_
*1118 _1085_
*1119 _1086_
*1120 _1087_
*1121 _1088_
*1122 _1089_
*1123 _1090_
*1124 _1091_
*1125 _1092_
*1126 _1093_
*1127 _1094_
*1128 _1095_
*1129 _1096_
*1130 _1097_
*1131 _1098_
*1132 _1099_
*1133 _1100_
*1134 _1101_
*1135 _1102_
*1136 _1103_
*1137 _1104_
*1138 _1105_
*1139 _1106_
*1140 _1107_
*1141 _1108_
*1142 _1109_
*1143 _1110_
*1144 _1111_
*1145 _1112_
*1146 _1113_
*1147 _1114_
*1148 _1115_
*1149 _1116_
*1150 _1117_
*1151 _1118_
*1152 _1119_
*1153 _1120_
*1154 _1121_
*1155 _1122_
*1156 _1123_
*1157 _1124_
*1158 _1125_
*1159 _1126_
*1160 _1127_
*1161 _1128_
*1162 _1129_
*1163 _1130_
*1164 _1131_
*1165 _1132_
*1166 _1133_
*1167 _1134_
*1168 _1135_
*1169 _1136_
*1170 _1137_
*1171 _1138_
*1172 _1139_
*1173 _1140_
*1174 _1141_
*1175 _1142_
*1176 _1143_
*1177 _1144_
*1178 _1145_
*1179 _1146_
*1180 _1147_
*1181 _1148_
*1182 _1149_
*1183 _1150_
*1184 _1151_
*1185 _1152_
*1186 _1153_
*1187 _1154_
*1188 _1155_
*1189 _1156_
*1190 _1157_
*1191 _1158_
*1192 _1159_
*1193 _1160_
*1194 _1161_
*1195 _1162_
*1196 _1163_
*1197 _1164_
*1198 _1165_
*1199 _1166_
*1200 _1167_
*1201 _1168_
*1202 _1169_
*1203 _1170_
*1204 _1171_
*1205 _1172_
*1206 _1173_
*1207 _1174_
*1208 _1175_
*1209 _1176_
*1210 _1177_
*1211 _1178_
*1212 _1179_
*1213 _1180_
*1214 _1181_
*1215 _1182_
*1216 _1183_
*1217 _1184_
*1218 _1185_
*1219 _1186_
*1220 _1187_
*1221 _1188_
*1222 _1189_
*1223 _1190_
*1224 _1191_
*1225 _1192_
*1226 _1193_
*1227 _1194_
*1228 _1195_
*1229 _1196_
*1230 _1197_
*1231 _1198_
*1232 _1199_
*1233 _1200_
*1234 _1201_
*1235 _1202_
*1236 _1203_
*1237 _1204_
*1238 _1205_
*1239 _1206_
*1240 _1207_
*1241 _1208_
*1242 _1209_
*1243 _1210_
*1244 _1211_
*1245 _1212_
*1246 _1213_
*1247 _1214_
*1248 _1215_
*1249 _1216_
*1250 _1217_
*1251 _1218_
*1252 _1219_
*1253 _1220_
*1254 _1221_
*1255 _1222_
*1256 _1223_
*1257 _1224_
*1258 _1225_
*1259 _1226_
*1260 _1227_
*1261 _1228_
*1262 _1229_
*1263 _1230_
*1264 _1231_
*1265 _1232_
*1266 _1233_
*1267 _1234_
*1268 _1235_
*1269 _1236_
*1270 _1237_
*1271 _1238_
*1272 _1239_
*1273 _1240_
*1274 _1241_
*1275 _1242_
*1276 _1243_
*1277 _1244_
*1278 _1245_
*1279 _1246_
*1280 _1247_
*1281 _1248_
*1282 _1249_
*1283 _1250_
*1284 _1251_
*1285 _1252_
*1286 _1253_
*1287 _1254_
*1288 _1255_
*1289 _1256_
*1290 _1257_
*1291 _1258_
*1292 _1259_
*1293 _1260_
*1294 _1261_
*1295 _1262_
*1296 _1263_
*1297 _1264_
*1298 _1265_
*1299 _1266_
*1300 _1267_
*1301 _1268_
*1302 _1269_
*1303 _1270_
*1304 _1271_
*1305 _1272_
*1306 _1273_
*1307 _1274_
*1308 _1275_
*1309 _1276_
*1310 _1277_
*1311 _1278_
*1312 _1279_
*1313 _1280_
*1314 _1281_
*1315 _1282_
*1316 _1283_
*1317 _1284_
*1318 _1285_
*1319 _1286_
*1320 _1287_
*1321 _1288_
*1322 _1289_
*1323 _1290_
*1324 _1291_
*1325 _1292_
*1326 _1293_
*1327 _1294_
*1328 _1295_
*1329 _1296_
*1330 _1297_
*1331 _1298_
*1332 _1299_
*1333 _1300_
*1334 _1301_
*1335 _1302_
*1336 _1303_
*1337 _1304_
*1338 _1305_
*1339 _1306_
*1340 _1307_
*1341 _1308_
*1342 _1309_
*1343 _1310_
*1344 _1311_
*1345 _1312_
*1346 _1313_
*1347 _1314_
*1348 _1315_
*1349 _1316_
*1350 _1317_
*1351 _1318_
*1352 _1319_
*1353 _1320_
*1354 _1321_
*1355 _1322_
*1356 _1323_
*1357 _1324_
*1358 _1325_
*1359 _1326_
*1360 _1327_
*1361 _1328_
*1362 _1329_
*1363 _1330_
*1364 _1331_
*1365 _1332_
*1366 _1333_
*1367 _1334_
*1368 _1335_
*1369 _1336_
*1370 _1337_
*1371 _1338_
*1372 _1339_
*1373 _1340_
*1374 _1341_
*1375 _1342_
*1376 _1343_
*1377 _1344_
*1378 _1345_
*1379 _1346_
*1380 _1347_
*1381 _1348_
*1382 _1349_
*1383 _1350_
*1384 _1351_
*1385 _1352_
*1386 _1353_
*1387 _1354_
*1388 _1355_
*1389 _1356_
*1390 _1357_
*1391 _1358_
*1392 _1359_
*1393 _1360_
*1394 _1361_
*1395 _1362_
*1396 _1363_
*1397 _1364_
*1398 _1365_
*1399 _1366_
*1400 _1367_
*1401 _1368_
*1402 _1369_
*1403 _1370_
*1404 _1371_
*1405 _1372_
*1406 _1373_
*1407 _1374_
*1408 _1375_
*1409 _1376_
*1410 _1377_
*1411 _1378_
*1412 _1379_
*1413 _1380_
*1414 _1381_
*1415 _1382_
*1416 _1383_
*1417 _1384_
*1418 _1385_
*1419 _1386_
*1420 _1387_
*1421 _1388_
*1422 _1389_
*1423 _1390_
*1424 _1391_
*1425 _1392_
*1426 _1393_
*1427 _1394_
*1428 _1395_
*1429 _1396_
*1430 _1397_
*1431 _1398_
*1432 _1399_
*1433 _1400_
*1434 _1401_
*1435 _1402_
*1436 _1403_
*1437 _1404_
*1438 _1405_
*1439 _1406_
*1440 _1407_
*1441 _1408_
*1442 _1409_
*1443 _1410_
*1444 _1411_
*1445 _1412_
*1446 _1413_
*1447 _1414_
*1448 _1415_
*1449 _1416_
*1450 _1417_
*1451 _1418_
*1452 _1419_
*1453 _1420_
*1454 _1421_
*1455 _1422_
*1456 _1423_
*1457 _1424_
*1458 _1425_
*1459 _1426_
*1460 _1427_
*1461 _1428_
*1462 _1429_
*1463 _1430_
*1464 _1431_
*1465 _1432_
*1466 _1433_
*1467 _1434_
*1468 _1435_
*1469 _1436_
*1470 _1437_
*1471 _1438_
*1472 _1439_
*1473 _1440_
*1474 _1441_
*1475 _1442_
*1476 _1443_
*1477 _1444_
*1478 _1445_
*1479 _1446_
*1480 _1447_
*1481 _1448_
*1482 _1449_
*1483 _1450_
*1484 _1451_
*1485 _1452_
*1486 _1453_
*1487 _1454_
*1488 _1455_
*1489 _1456_
*1490 _1457_
*1491 _1458_
*1492 _1459_
*1493 _1460_
*1494 _1461_
*1495 _1462_
*1496 _1463_
*1497 _1464_
*1498 _1465_
*1499 _1466_
*1500 _1467_
*1501 _1468_
*1502 _1469_
*1503 _1470_
*1504 _1471_
*1505 _1472_
*1506 _1473_
*1507 _1474_
*1508 _1475_
*1509 _1476_
*1510 _1477_
*1511 _1478_
*1512 _1479_
*1513 _1480_
*1514 _1481_
*1515 _1482_
*1516 _1483_
*1517 _1484_
*1518 _1485_
*1519 _1486_
*1520 _1487_
*1521 _1488_
*1522 _1489_
*1523 _1490_
*1524 _1491_
*1525 _1492_
*1526 _1493_
*1527 _1494_
*1528 _1495_
*1529 _1496_
*1530 _1497_
*1531 _1498_
*1532 _1499_
*1533 _1500_
*1534 _1501_
*1535 _1502_
*1536 _1503_
*1537 _1504_
*1538 _1505_
*1539 _1506_
*1540 _1507_
*1541 _1508_
*1542 _1509_
*1543 _1510_
*1544 _1511_
*1545 _1512_
*1546 _1513_
*1547 _1514_
*1548 _1515_
*1549 _1516_
*1550 _1517_
*1551 _1518_
*1552 _1519_
*1553 _1520_
*1554 _1521_
*1555 _1522_
*1556 _1523_
*1557 _1524_
*1558 _1525_
*1559 _1526_
*1560 _1527_
*1561 _1528_
*1562 _1529_
*1563 _1530_
*1564 _1531_
*1565 _1532_
*1566 _1533_
*1567 _1534_
*1568 _1535_
*1569 _1536_
*1570 _1537_
*1571 _1538_
*1572 _1539_
*1573 _1540_
*1574 _1541_
*1575 _1542_
*1576 _1543_
*1577 _1544_
*1578 _1545_
*1579 _1546_
*1580 _1547_
*1581 _1548_
*1582 _1549_
*1583 _1550_
*1584 _1551_
*1585 _1552_
*1586 _1553_
*1587 _1554_
*1588 _1555_
*1589 _1556_
*1590 _1557_
*1591 _1558_
*1592 _1559_
*1593 _1560_
*1594 _1561_
*1595 _1562_
*1596 _1563_
*1597 _1564_
*1598 _1565_
*1599 _1566_
*1600 _1567_
*1601 _1568_
*1602 _1569_
*1603 _1570_
*1604 _1571_
*1605 _1572_
*1606 _1573_
*1607 _1574_
*1608 _1575_
*1609 _1576_
*1610 _1577_
*1611 _1578_
*1612 _1579_
*1613 _1580_
*1614 _1581_
*1615 _1582_
*1616 _1583_
*1617 _1584_
*1618 _1585_
*1619 _1586_
*1620 _1587_
*1621 _1588_
*1622 _1589_
*1623 _1590_
*1624 _1591_
*1625 _1592_
*1626 _1593_
*1627 _1594_
*1628 _1595_
*1629 _1596_
*1630 _1597_
*1631 _1598_
*1632 _1599_
*1633 _1600_
*1634 _1601_
*1635 _1602_
*1636 _1603_
*1637 _1604_
*1638 _1605_
*1639 _1606_
*1640 _1607_
*1641 _1608_
*1642 _1609_
*1643 _1610_
*1644 _1611_
*1645 _1612_
*1646 _1613_
*1647 _1614_
*1648 _1615_
*1649 _1616_
*1650 _1617_
*1651 _1618_
*1652 _1619_
*1653 _1620_
*1654 _1621_
*1655 _1622_
*1656 _1623_
*1657 _1624_
*1658 _1625_
*1659 _1626_
*1660 _1627_
*1661 _1628_
*1662 _1629_
*1663 _1630_
*1664 _1631_
*1665 _1632_
*1666 _1633_
*1667 _1634_
*1668 _1635_
*1669 _1636_
*1670 _1637_
*1671 _1638_
*1672 _1639_
*1673 _1640_
*1674 _1641_
*1675 _1642_
*1676 _1643_
*1677 _1644_
*1678 _1645_
*1679 _1646_
*1680 _1647_
*1681 _1648_
*1682 _1649_
*1683 _1650_
*1684 _1651_
*1685 _1652_
*1686 _1653_
*1687 _1654_
*1688 _1655_
*1689 _1656_
*1690 _1657_
*1691 _1658_
*1692 _1659_
*1693 _1660_
*1694 _1661_
*1695 _1662_
*1696 _1663_
*1697 _1664_
*1698 _1665_
*1699 _1666_
*1700 _1667_
*1701 _1668_
*1702 _1669_
*1703 _1670_
*1704 _1671_
*1705 _1672_
*1706 _1673_
*1707 _1674_
*1708 _1675_
*1709 _1676_
*1710 _1677_
*1711 _1678_
*1712 _1679_
*1713 _1680_
*1714 _1681_
*1715 _1682_
*1716 _1683_
*1717 _1684_
*1718 _1685_
*1719 _1686_
*1720 _1687_
*1721 _1688_
*1722 _1689_
*1723 _1690_
*1724 _1691_
*1725 _1692_
*1726 _1693_
*1727 _1694_
*1728 _1695_
*1729 _1696_
*1730 _1697_
*1731 _1698_
*1732 _1699_
*1733 _1700_
*1734 _1701_
*1735 _1702_
*1736 _1703_
*1737 _1704_
*1738 _1705_
*1739 _1706_
*1740 _1707_
*1741 _1708_
*1742 _1709_
*1743 _1710_
*1744 _1711_
*1745 _1712_
*1746 _1713_
*1747 _1714_
*1748 _1715_
*1749 _1716_
*1750 _1717_
*1751 _1718_
*1752 _1719_
*1753 _1720_
*1754 _1721_
*1755 _1722_
*1756 _1723_
*1757 _1724_
*1758 _1725_
*1759 _1726_
*1760 _1727_
*1761 _1728_
*1762 _1729_
*1763 _1730_
*1764 _1731_
*1765 _1732_
*1766 _1733_
*1767 _1734_
*1768 _1735_
*1769 _1736_
*1770 _1737_
*1771 _1738_
*1772 _1739_
*1773 _1740_
*1774 _1741_
*1775 _1742_
*1776 _1743_
*1777 _1744_
*1778 _1745_
*1779 _1746_
*1780 _1747_
*1781 _1748_
*1782 _1749_
*1783 _1750_
*1784 _1751_
*1785 _1752_
*1786 _1753_
*1787 _1754_
*1788 _1755_
*1789 _1756_
*1790 _1757_
*1791 _1758_
*1792 _1759_
*1793 _1760_
*1794 _1761_
*1795 _1762_
*1796 _1763_
*1797 _1764_
*1798 _1765_
*1799 _1766_
*1800 _1767_
*1801 _1768_
*1802 _1769_
*1803 _1770_
*1804 _1771_
*1805 _1772_
*1806 _1773_
*1807 _1774_
*1808 _1775_
*1809 _1776_
*1810 _1777_
*1811 _1778_
*1812 _1779_
*1813 _1780_
*1814 _1781_
*1815 _1782_
*1816 _1783_
*1817 _1784_
*1818 _1785_
*1819 _1786_
*1820 _1787_
*1821 _1788_
*1822 _1789_
*1823 _1790_
*1824 _1791_
*1825 _1792_
*1826 _1793_
*1827 _1794_
*1828 _1795_
*1829 _1796_
*1830 _1797_
*1831 _1798_
*1832 _1799_
*1833 _1800_
*1834 _1801_
*1835 _1802_
*1836 _1803_
*1837 _1804_
*1838 _1805_
*1839 _1806_
*1840 _1807_
*1841 _1808_
*1842 _1809_
*1843 _1810_
*1844 _1811_
*1845 _1812_
*1846 _1813_
*1847 _1814_
*1848 _1815_
*1849 _1816_
*1850 _1817_
*1851 _1818_
*1852 _1819_
*1853 _1820_
*1854 _1821_
*1855 _1822_
*1856 _1823_
*1857 _1824_
*1858 _1825_
*1859 _1826_
*1860 _1827_
*1861 _1828_
*1862 _1829_
*1863 _1830_
*1864 _1831_
*1865 _1832_
*1866 _1833_
*1867 _1834_
*1868 _1835_
*1869 _1836_
*1870 _1837_
*1871 _1838_
*1872 _1839_
*1873 _1840_
*1874 _1841_
*1875 _1842_
*1876 _1843_
*1877 _1844_
*1878 _1845_
*1879 _1846_
*1880 _1847_
*1881 _1848_
*1882 _1849_
*1883 _1850_
*1884 _1851_
*1885 _1852_
*1886 _1853_
*1887 _1854_
*1888 _1855_
*1889 _1856_
*1890 _1857_
*1891 _1858_
*1892 _1859_
*1893 _1860_
*1894 _1861_
*1895 _1862_
*1896 _1863_
*1897 _1864_
*1898 _1865_
*1899 _1866_
*1900 _1867_
*1901 _1868_
*1902 _1869_
*1903 _1870_
*1904 _1871_
*1905 _1872_
*1906 _1873_
*1907 _1874_
*1908 _1875_
*1909 _1876_
*1910 _1877_
*1911 _1878_
*1912 _1879_
*1913 _1880_
*1914 _1881_
*1915 _1882_
*1916 _1883_
*1917 _1884_
*1918 _1885_
*1919 _1886_
*1920 _1887_
*1921 _1888_
*1922 _1889_
*1923 _1890_
*1924 _1891_
*1925 _1892_
*1926 _1893_
*1927 _1894_
*1928 _1895_
*1929 _1896_
*1930 _1897_
*1931 _1898_
*1932 _1899_
*1933 _1900_
*1934 _1901_
*1935 _1902_
*1936 _1903_
*1937 _1904_
*1938 _1905_
*1939 _1906_
*1940 _1907_
*1941 _1908_
*1942 _1909_
*1943 _1910_
*1944 _1911_
*1945 _1912_
*1946 _1913_
*1947 _1914_
*1948 _1915_
*1949 _1916_
*1950 _1917_
*1951 _1918_
*1952 _1919_
*1953 _1920_
*1954 _1921_
*1955 _1922_
*1956 _1923_
*1957 _1924_
*1958 _1925_
*1959 _1926_
*1960 _1927_
*1961 _1928_
*1962 _1929_
*1963 _1930_
*1964 _1931_
*1965 _1932_
*1966 _1933_
*1967 _1934_
*1968 _1935_
*1969 _1936_
*1970 _1937_
*1971 _1938_
*1972 _1939_
*1973 _1940_
*1974 _1941_
*1975 _1942_
*1976 _1943_
*1977 _1944_
*1978 _1945_
*1979 _1946_
*1980 _1947_
*1981 _1948_
*1982 _1949_
*1983 _1950_
*1984 _1951_
*1985 _1952_
*1986 _1953_
*1987 _1954_
*1988 _1955_
*1989 _1956_
*1990 _1957_
*1991 _1958_
*1992 _1959_
*1993 _1960_
*1994 _1961_
*1995 _1962_
*1996 _1963_
*1997 _1964_
*1998 _1965_
*1999 _1966_
*2000 _1967_
*2001 _1968_
*2002 _1969_
*2003 _1970_
*2004 _1971_
*2005 _1972_
*2006 _1973_
*2007 _1974_
*2008 _1975_
*2009 _1976_
*2010 _1977_
*2011 _1978_
*2012 _1979_
*2013 _1980_
*2014 _1981_
*2015 _1982_
*2016 _1983_
*2017 _1984_
*2018 _1985_
*2019 _1986_
*2020 _1987_
*2021 _1988_
*2022 _1989_
*2023 _1990_
*2024 _1991_
*2025 _1992_
*2026 _1993_
*2027 _1994_
*2028 _1995_
*2029 _1996_
*2030 _1997_
*2031 _1998_
*2032 _1999_
*2033 _2000_
*2034 _2001_
*2035 _2002_
*2036 _2003_
*2037 _2004_
*2038 _2005_
*2039 _2006_
*2040 _2007_
*2041 _2008_
*2042 clk_div_out
*2043 clknet_0_clk
*2044 clknet_0_clk_div_out
*2045 clknet_0_sap_3_inst\.alu\.clk
*2046 clknet_0_sap_3_inst\.alu\.clk_regs
*2047 clknet_1_0__leaf_clk_div_out
*2048 clknet_1_0__leaf_sap_3_inst\.alu\.clk
*2049 clknet_1_1__leaf_clk_div_out
*2050 clknet_1_1__leaf_sap_3_inst\.alu\.clk
*2051 clknet_3_0__leaf_clk
*2052 clknet_3_1__leaf_clk
*2053 clknet_3_2__leaf_clk
*2054 clknet_3_3__leaf_clk
*2055 clknet_3_4__leaf_clk
*2056 clknet_3_5__leaf_clk
*2057 clknet_3_6__leaf_clk
*2058 clknet_3_7__leaf_clk
*2059 clknet_4_0_0_sap_3_inst\.alu\.clk_regs
*2060 clknet_4_10_0_sap_3_inst\.alu\.clk_regs
*2061 clknet_4_11_0_sap_3_inst\.alu\.clk_regs
*2062 clknet_4_12_0_sap_3_inst\.alu\.clk_regs
*2063 clknet_4_13_0_sap_3_inst\.alu\.clk_regs
*2064 clknet_4_14_0_sap_3_inst\.alu\.clk_regs
*2065 clknet_4_15_0_sap_3_inst\.alu\.clk_regs
*2066 clknet_4_1_0_sap_3_inst\.alu\.clk_regs
*2067 clknet_4_2_0_sap_3_inst\.alu\.clk_regs
*2068 clknet_4_3_0_sap_3_inst\.alu\.clk_regs
*2069 clknet_4_4_0_sap_3_inst\.alu\.clk_regs
*2070 clknet_4_5_0_sap_3_inst\.alu\.clk_regs
*2071 clknet_4_6_0_sap_3_inst\.alu\.clk_regs
*2072 clknet_4_7_0_sap_3_inst\.alu\.clk_regs
*2073 clknet_4_8_0_sap_3_inst\.alu\.clk_regs
*2074 clknet_4_9_0_sap_3_inst\.alu\.clk_regs
*2075 clknet_5_0__leaf_sap_3_inst\.alu\.clk_regs
*2076 clknet_5_10__leaf_sap_3_inst\.alu\.clk_regs
*2077 clknet_5_11__leaf_sap_3_inst\.alu\.clk_regs
*2078 clknet_5_12__leaf_sap_3_inst\.alu\.clk_regs
*2079 clknet_5_13__leaf_sap_3_inst\.alu\.clk_regs
*2080 clknet_5_14__leaf_sap_3_inst\.alu\.clk_regs
*2081 clknet_5_15__leaf_sap_3_inst\.alu\.clk_regs
*2082 clknet_5_16__leaf_sap_3_inst\.alu\.clk_regs
*2083 clknet_5_17__leaf_sap_3_inst\.alu\.clk_regs
*2084 clknet_5_18__leaf_sap_3_inst\.alu\.clk_regs
*2085 clknet_5_19__leaf_sap_3_inst\.alu\.clk_regs
*2086 clknet_5_1__leaf_sap_3_inst\.alu\.clk_regs
*2087 clknet_5_20__leaf_sap_3_inst\.alu\.clk_regs
*2088 clknet_5_21__leaf_sap_3_inst\.alu\.clk_regs
*2089 clknet_5_22__leaf_sap_3_inst\.alu\.clk_regs
*2090 clknet_5_23__leaf_sap_3_inst\.alu\.clk_regs
*2091 clknet_5_24__leaf_sap_3_inst\.alu\.clk_regs
*2092 clknet_5_25__leaf_sap_3_inst\.alu\.clk_regs
*2093 clknet_5_26__leaf_sap_3_inst\.alu\.clk_regs
*2094 clknet_5_27__leaf_sap_3_inst\.alu\.clk_regs
*2095 clknet_5_28__leaf_sap_3_inst\.alu\.clk_regs
*2096 clknet_5_29__leaf_sap_3_inst\.alu\.clk_regs
*2097 clknet_5_2__leaf_sap_3_inst\.alu\.clk_regs
*2098 clknet_5_30__leaf_sap_3_inst\.alu\.clk_regs
*2099 clknet_5_31__leaf_sap_3_inst\.alu\.clk_regs
*2100 clknet_5_3__leaf_sap_3_inst\.alu\.clk_regs
*2101 clknet_5_4__leaf_sap_3_inst\.alu\.clk_regs
*2102 clknet_5_5__leaf_sap_3_inst\.alu\.clk_regs
*2103 clknet_5_6__leaf_sap_3_inst\.alu\.clk_regs
*2104 clknet_5_7__leaf_sap_3_inst\.alu\.clk_regs
*2105 clknet_5_8__leaf_sap_3_inst\.alu\.clk_regs
*2106 clknet_5_9__leaf_sap_3_inst\.alu\.clk_regs
*2107 clknet_leaf_0_sap_3_inst\.alu\.clk
*2108 clknet_leaf_1_sap_3_inst\.alu\.clk
*2109 clknet_leaf_2_sap_3_inst\.alu\.clk
*2110 clknet_leaf_3_sap_3_inst\.alu\.clk
*2111 mem_mar_we
*2112 mem_ram_we
*2113 net1
*2114 net10
*2115 net11
*2116 net12
*2117 net13
*2118 net14
*2119 net15
*2120 net16
*2121 net17
*2122 net18
*2123 net19
*2124 net2
*2125 net20
*2126 net21
*2127 net22
*2128 net23
*2129 net24
*2130 net25
*2131 net26
*2132 net27
*2133 net28
*2134 net29
*2135 net3
*2136 net30
*2137 net31
*2138 net32
*2139 net35
*2140 net36
*2141 net37
*2142 net38
*2143 net39
*2144 net4
*2145 net40
*2146 net41
*2147 net42
*2148 net43
*2149 net44
*2150 net45
*2151 net46
*2152 net47
*2153 net48
*2154 net49
*2155 net5
*2156 net50
*2157 net51
*2158 net52
*2159 net53
*2160 net54
*2161 net542
*2162 net543
*2163 net544
*2164 net545
*2165 net546
*2166 net547
*2167 net548
*2168 net549
*2169 net55
*2170 net550
*2171 net551
*2172 net552
*2173 net553
*2174 net554
*2175 net555
*2176 net556
*2177 net557
*2178 net558
*2179 net559
*2180 net56
*2181 net560
*2182 net561
*2183 net562
*2184 net563
*2185 net564
*2186 net565
*2187 net566
*2188 net567
*2189 net568
*2190 net569
*2191 net57
*2192 net570
*2193 net571
*2194 net572
*2195 net573
*2196 net574
*2197 net575
*2198 net576
*2199 net577
*2200 net578
*2201 net579